*version 9.2 72239647
u 3491
DSTM? 2
U? 21
V? 3
R? 4
? 1
@libraries
@analysis
.DC 0 0 0 0 1 1
.TRAN 1 0 0 0
+0 200ns
+1 20us
+3 10n
.PROBE 0 0 1 1 0 3
.LIB ADCserial.lib
.STMLIB ADCserial.stl
@targets
@attributes
@translators
a 0 u 13 0 0 0 hln 100 PCBOARDS=PCB
a 0 u 13 0 0 0 hln 100 PSPICE=PSPICE
a 0 u 13 0 0 0 hln 100 XILINX=XILINX
a 0 u 13 0 0 0 hln 100 TANGO=PCB
a 0 u 13 0 0 0 hln 100 SCICARDS=PCB
a 0 u 13 0 0 0 hln 100 PROTEL=PCB
a 0 u 13 0 0 0 hln 100 PCAD=PCB
a 0 u 13 0 0 0 hln 100 PADS=PCB
a 0 u 13 0 0 0 hln 100 ORCAD=PCB
a 0 u 13 0 0 0 hln 100 EDIF=PCB
a 0 u 13 0 0 0 hln 100 CADSTAR=PCB
a 0 u 13 0 0 0 hln 100 POLARIS=PSPICE
@setup
unconnectedPins 0
connectViaLabel 0
connectViaLocalLabels 0
NoStim4ExtIFPortsWarnings 1
AutoGenStim4ExtIFPorts 1
@index
pageloc 1 0 27890 
@status
n 0 97:09:13:14:22:55;876777775 e 
s 2833 97:09:13:15:41:36;876782496 e 
c 100:04:11:19:03:41;958097021
a 0 98:03:22:15:10:25;893283025 e 
*page 1 0 1520 970 iC
@ports
port 130 HI 440 160 h
port 131 LO 440 210 h
port 1254 LO 480 100 h
port 2749 LO 440 380 h
port 2752 LO 480 270 h
port 2757 HI 440 330 h
port 1006 LO 600 670 H
port 2149 IF_OUT 1160 620 h
a 1 xr 3 0 31 8 hcn 100 LABEL=CONVST/EOC
port 2145 IF_IN 310 120 h
a 1 xr 3 0 19 8 hcn 100 LABEL=CLOCK
port 2165 IF_OUT 1160 1110 h
a 1 xr 3 0 31 8 hcn 100 LABEL=Vref
port 2150 IF_OUT 1160 790 h
a 1 xr 3 0 31 8 hcn 100 LABEL=DATA
port 3384 Agnd 1060 1180 h
port 3385 Agnd 1120 1180 h
port 2173 Agnd 410 1010 h
port 2146 IF_IN 290 470 h
a 1 xr 3 0 19 8 hcn 100 LABEL=AIN
port 3376 Agnd 500 1080 h
port 3437 hi 760 1340 h
port 3485 interface 300 1290 h
a 1 xr 3 0 19 8 hcn 100 LABEL=VSS
port 3486 interface 300 1330 h
a 1 xr 3 0 19 8 hcn 100 LABEL=GND
port 3487 bubble 350 1290 d
a 1 x 3 0 0 0 hcn 100 LABEL=VSS
port 3488 bubble 350 1330 d
a 1 x 3 0 0 0 hcn 100 LABEL=GND
port 3489 interface 300 1250 h
a 1 xr 3 0 19 8 hcn 100 LABEL=VDD
port 3490 bubble 350 1250 d
a 1 x 3 0 0 0 hcn 100 LABEL=VDD
@parts
part 1864 DigClock 310 170 h
a 0 u 0 0 0 10 hln 100 DELAY=10ns
a 0 u 0 0 0 40 hln 100 STARTVAL=1
a 0 u 0 0 0 50 hln 100 OPPVAL=0
a 0 u 0 0 0 20 hln 100 ONTIME=10ns
a 0 u 0 0 0 30 hln 100 OFFTIME=100
a 1 ap 9 0 0 -2 hln 100 REFDES=DSTM1
a 0 a 0:13 0 0 0 hln 100 PKGREF=DSTM1
part 239 AND2 1010 140 h
a 0 x 0 0 0 10 hcn 100 IMPL=
a 0 sp 11 0 12 48 hln 100 PART=AND2
a 0 s 0:13 0 0 0 hln 100 PKGTYPE=
a 0 ap 9 0 40 0 hln 100 REFDES=U1
a 0 a 0:13 0 0 0 hln 100 PKGREF=U1
part 146 OR2 920 210 U
a 0 sp 11 0 50 48 hln 100 PART=OR2
a 0 s 0:13 0 0 0 hln 100 PKGTYPE=
a 0 x 0 0 0 10 hcn 100 IMPL=
a 0 ap 9 0 40 0 hln 100 REFDES=U2
a 0 a 0:13 0 0 0 hln 100 PKGREF=U2
part 2612 DC_569 530 270 h
a 0 s 0:13 0 0 0 hln 100 PKGTYPE=
a 0 s 11 0 -8 138 hln 100 PART=DC_569
a 1 ap 9 0 40 -2 hln 100 REFDES=U3
a 0 a 0:13 0 0 0 hln 100 PKGREF=U3
part 2272 DELAY 500 590 v
a 0 u 13 0 32 38 hlb 100 DELAY=@tSC0
a 0 sp 11 0 26 80 hln 100 PART=DELAY
a 1 ap 9 0 40 -2 hln 100 REFDES=U4
a 0 a 0:13 0 0 0 hln 100 PKGREF=U4
part 1004 DFFRS 570 670 H
a 0 sp 11 0 36 88 hln 100 PART=DFFRS
a 0 s 0:13 0 0 0 hln 100 PKGTYPE=
a 0 x 0 0 0 10 hlb 100 IMPL=
a 0 ap 9 0 40 8 hln 100 REFDES=U5
a 0 a 0:13 0 0 0 hln 100 PKGREF=U5
part 947 AND2 780 660 h
a 0 x 0 0 0 10 hcn 100 IMPL=
a 0 sp 11 0 12 48 hln 100 PART=AND2
a 0 s 0:13 0 0 0 hln 100 PKGTYPE=
a 0 ap 9 0 40 0 hln 100 REFDES=U6
a 0 a 0:13 0 0 0 hln 100 PKGREF=U6
part 823 R 1130 230 d
a 0 sp 0 0 0 10 hlb 100 PART=R
a 0 s 0:13 0 0 0 hln 100 PKGTYPE=RC05
a 0 s 0:13 0 0 0 hln 100 GATE=
a 0 ap 9 0 15 0 hln 100 REFDES=R1
a 0 u 13 0 15 25 hln 100 VALUE=13k
a 0 a 0:13 0 0 0 hln 100 PKGREF=R1
part 140 INV 400 120 h
a 0 sp 11 0 40 40 hln 100 PART=INV
a 0 s 0:13 0 0 0 hln 100 PKGTYPE=
a 0 x 0 0 0 10 hln 100 IMPL=
a 0 ap 9 0 21 43 hln 100 REFDES=U7
a 0 a 0:13 0 0 0 hln 100 PKGREF=U7
part 420 dc_95_1 840 980 U
a 0 u 0:13 0 68 82 hlb 100 CKDMAX=@CKDPDMAX
a 0 u 0:13 0 68 70 hlb 100 CKDMIN=@CKDPDMIN
a 0 s 0:13 0 0 0 hln 100 PKGTYPE=
a 0 s 11 0 34 100 hln 100 PART=dc_95_1
a 0 u 0:13 0 68 36 hlb 100 CKHI=@CLKHI
a 0 u 0:13 0 68 26 hlb 100 CKLO=@CLKLO
a 0 u 0:13 0 68 58 hlb 100 CKMAX=@CLKMAX
a 0 u 0:13 0 68 46 hlb 100 CKMIN=@CLKMIN
a 1 ap 9 0 1 -3 hln 100 REFDES=U8
a 0 a 0:13 0 0 0 hln 100 PKGREF=U8
part 3153 dc_95_1 840 1350 U
a 0 u 0:13 0 68 82 hlb 100 CKDMAX=@CKDPDMAX
a 0 u 0:13 0 68 70 hlb 100 CKDMIN=@CKDPDMIN
a 0 s 0:13 0 0 0 hln 100 PKGTYPE=
a 0 s 11 0 34 100 hln 100 PART=dc_95_1
a 0 u 0:13 0 68 36 hlb 100 CKHI=@CLKHI
a 0 u 0:13 0 68 26 hlb 100 CKLO=@CLKLO
a 0 u 0:13 0 68 58 hlb 100 CKMAX=@CLKMAX
a 0 u 0:13 0 68 46 hlb 100 CKMIN=@CLKMIN
a 1 ap 9 0 1 -3 hln 100 REFDES=U9
a 0 a 0:13 0 0 0 hln 100 PKGREF=U9
part 419 dc_95_1 840 860 U
a 1 x 0 0 0 0 hcn 100 TEMPLATE=X^@REFDES %MODE %CLK1 %CLK2 %SER %A %B %C %D %QA %QB %QC %QD %PWR %GND @MODEL PARAMS:\n+ IO_LEVEL=@IO_LEVEL MNTYMXDLY=@MNTYMXDLY \n+ CLKHI=@CKHI CLKLO=@CKLO CLKMAX=@CKMAX CLKMIN=@CKMIN CKDPDMIN=@CKDMIN CKDPDMAX=@CKDMAX
a 0 u 13 13 178 4 hlb 100 CKLO=@CLKLO
a 0 u 13 13 178 18 hlb 100 CKHI=@CLKHI
a 0 u 13 13 178 30 hlb 100 CKMIN=@CLKMIN
a 0 u 13 13 178 40 hlb 100 CKMAX=@CLKMAX
a 0 u 13 13 178 52 hlb 100 CKDMIN=@CKDPDMIN
a 0 u 13 13 178 64 hlb 100 CKDMAX=@CKDPDMAX
a 0 s 0:13 0 0 0 hln 100 PKGTYPE=
a 0 s 11 0 36 99 hln 100 PART=dc_95_1
a 1 ap 9 0 1 -3 hln 100 REFDES=U10
a 0 a 0:13 0 0 0 hln 100 PKGREF=U10
part 2177 R 1060 1140 d
a 0 u 13 0 15 25 hln 100 VALUE=1G
a 0 sp 0 0 0 10 hlb 100 PART=R
a 0 s 0:13 0 0 0 hln 100 PKGTYPE=RC05
a 0 s 0:13 0 0 0 hln 100 GATE=
a 0 ap 9 0 15 0 hln 100 REFDES=R2
a 0 a 0:13 0 0 0 hln 100 PKGREF=R2
part 2153 Vsrc 1120 1140 h
a 1 u 13 13 49 22 hcn 100 DC=-5.25V
a 1 ap 9 0 20 10 hcn 100 REFDES=V1
a 0 a 0:13 0 0 0 hln 100 PKGREF=V1
part 3154 dc_95_1 840 1230 U
a 1 x 0 0 0 0 hcn 100 TEMPLATE=X^@REFDES %MODE %CLK1 %CLK2 %SER %A %B %C %D %QA %QB %QC %QD %PWR %GND @MODEL PARAMS:\n+ IO_LEVEL=@IO_LEVEL MNTYMXDLY=@MNTYMXDLY \n+ CLKHI=@CKHI CLKLO=@CKLO CLKMAX=@CKMAX CLKMIN=@CKMIN CKDPDMIN=@CKDMIN CKDPDMAX=@CKDMAX
a 0 u 13 13 178 4 hlb 100 CKLO=@CLKLO
a 0 u 13 13 178 18 hlb 100 CKHI=@CLKHI
a 0 u 13 13 178 30 hlb 100 CKMIN=@CLKMIN
a 0 u 13 13 178 40 hlb 100 CKMAX=@CLKMAX
a 0 u 13 13 178 52 hlb 100 CKDMIN=@CKDPDMIN
a 0 u 13 13 178 64 hlb 100 CKDMAX=@CKDPDMAX
a 0 s 0:13 0 0 0 hln 100 PKGTYPE=
a 0 s 11 0 36 99 hln 100 PART=dc_95_1
a 1 ap 9 0 1 -3 hln 100 REFDES=U11
a 0 a 0:13 0 0 0 hln 100 PKGREF=U11
part 421 dc_95_1 840 1110 U
a 0 u 0:13 0 68 82 hlb 100 CKDMAX=@CKDPDMAX
a 0 u 0:13 0 68 70 hlb 100 CKDMIN=@CKDPDMIN
a 0 u 0:13 0 68 46 hlb 100 CKMIN=@CLKMIN
a 0 u 0:13 0 68 58 hlb 100 CKMAX=@CLKMAX
a 0 u 0:13 0 68 26 hlb 100 CKLO=@CLKLO
a 0 u 0:13 0 68 36 hlb 100 CKHI=@CLKHI
a 0 s 11 0 40 100 hln 100 PART=dc_95_1
a 0 s 0:13 0 0 0 hln 100 PKGTYPE=
a 1 ap 9 0 1 -3 hln 100 REFDES=U12
a 0 a 0:13 0 0 0 hln 100 PKGREF=U12
part 2091 R 320 880 h
a 0 sp 0 0 0 10 hlb 100 PART=R
a 0 s 0:13 0 0 0 hln 100 PKGTYPE=RC05
a 0 s 0:13 0 0 0 hln 100 GATE=
a 0 u 13 0 15 25 hln 100 VALUE=2.5k
a 0 ap 9 0 15 0 hln 100 REFDES=R3
a 0 a 0:13 0 0 0 hln 100 PKGREF=R3
part 2170 VSRC 410 970 h
a 1 u 13 0 0 0 hcn 100 DC=5V
a 1 ap 9 0 20 10 hcn 100 REFDES=V2
a 0 a 0:13 0 0 0 hln 100 PKGREF=V2
part 3419 dc_adc20 450 880 h
a 0 u 13 13 -88 258 hlb 100 CNVWLO=@CONVWLO
a 0 s 0:13 0 0 0 hln 100 PKGTYPE=
a 0 sp 11 0 34 232 hrn 100 PART=dc_adc20
a 0 u 13 13 -90 272 hlb 100 CNVWHI=@CONVWHI
a 0 ap 9 0 10 -3 hln 100 REFDES=U13
a 0 a 0:13 0 0 0 hln 100 PKGREF=U13
part 2798 nor4 760 170 h
a 0 x 0 0 0 10 hcn 100 IMPL=
a 0 sp 11 0 52 48 hln 100 PART=nor4
a 0 s 0:13 0 0 0 hln 100 PKGTYPE=
a 0 a 0:13 0 0 0 hln 100 PKGREF=U14
a 0 ap 9 0 50 0 hln 100 REFDES=U14
part 2857 nor3 820 250 h
a 0 x 0 0 0 10 hcn 100 IMPL=
a 0 sp 11 0 44 48 hln 100 PART=nor3
a 0 s 0:13 0 0 0 hln 100 PKGTYPE=
a 0 a 0:13 0 0 0 hln 100 PKGREF=U15
a 0 ap 9 0 40 0 hln 100 REFDES=U15
part 2623 OR6 830 70 h
a 0 x 0 0 0 10 hcn 100 IMPL=
a 0 sp 11 0 60 58 hln 100 PART=OR6
a 0 s 0:13 0 0 0 hln 100 PKGTYPE=
a 0 a 0:13 0 0 0 hln 100 PKGREF=U16
a 0 ap 9 0 68 8 hln 100 REFDES=U16
part 2611 DC_569 530 100 h
a 0 s 0:13 0 0 0 hln 100 PKGTYPE=
a 0 s 11 0 -8 138 hln 100 PART=DC_569
a 0 a 0:13 0 0 0 hln 100 PKGREF=U17
a 1 ap 9 0 40 -2 hln 100 REFDES=U17
part 2870 nor4 680 670 h
a 0 x 0 0 0 10 hcn 100 IMPL=
a 0 sp 11 0 52 48 hln 100 PART=nor4
a 0 s 0:13 0 0 0 hln 100 PKGTYPE=
a 0 a 0:13 0 0 0 hln 100 PKGREF=U18
a 0 ap 9 0 50 0 hln 100 REFDES=U18
part 3461 nor3 740 530 h
a 0 sp 11 0 44 48 hln 100 PART=nor3
a 0 s 0:13 0 0 0 hln 100 PKGTYPE=
a 0 x 0 0 0 10 hcn 100 IMPL=
a 0 a 0:13 0 0 0 hln 100 PKGREF=U19
a 0 ap 9 0 40 0 hln 100 REFDES=U19
part 3462 nan3 830 530 h
a 0 sp 11 0 2 50 hln 100 PART=nan3
a 0 s 0:13 0 0 0 hln 100 PKGTYPE=
a 0 x 0 0 0 10 hcn 100 IMPL=
a 0 a 0:13 0 0 0 hln 100 PKGREF=U20
a 0 ap 9 0 40 0 hln 100 REFDES=U20
part 1 titleblk 2020 1520 h
a 1 s 13 0 350 10 hcn 100 PAGESIZE=C
a 1 x 13 0 180 60 hcn 100 PAGETITLE=A/C converter - Serial Interface
a 1 s 13 0 340 95 hrn 100 PAGECOUNT=1
a 1 s 13 0 300 95 hrn 100 PAGENO=1
@conn
w 60
a 0 up 0:33 0 0 0 hln 100 LVL=
s 440 160 480 160 73
a 0 up 33 0 485 159 hct 100 LVL=
s 480 160 530 160 2466
s 480 110 480 160 75
s 530 110 480 110 81
w 3
a 0 up 0:33 0 0 0 hln 100 LVL=
s 520 140 530 140 16
a 0 up 33 0 525 139 hct 100 LVL=
s 520 140 520 130 18
s 520 130 530 130 728
s 470 130 520 130 20
a 0 up 33 0 505 129 hct 100 LVL=
s 470 130 470 180 24
s 530 180 470 180 26
a 0 up 33 0 525 179 hct 100 LVL=
s 530 190 470 190 28
a 0 up 33 0 515 189 hct 100 LVL=
s 470 190 470 200 722
s 470 180 470 190 30
s 470 200 530 200 34
a 0 up 33 0 500 199 hct 100 LVL=
s 470 200 470 210 36
s 470 210 530 210 717
a 0 up 33 0 500 209 hct 100 LVL=
s 440 210 470 210 38
a 0 up 33 0 485 209 hct 100 LVL=
w 251
a 0 up 0:33 0 0 0 hln 100 V=
a 0 up 0:33 0 0 0 hln 100 LVL=
s 1080 150 1130 150 250
a 0 up 33 0 1105 149 hct 100 LVL=
a 0 up 33 0 1105 149 hct 100 V=
s 1130 150 1130 230 824
w 2728
s 520 230 600 230 2617
s 600 140 590 140 2621
s 600 230 600 140 2619
s 520 300 520 230 2615
s 530 300 520 300 2613
w 2734
s 530 350 470 350 2733
a 0 up 33 0 525 349 hct 100 LVL=
s 530 360 470 360 2735
a 0 up 33 0 515 359 hct 100 LVL=
s 470 360 470 370 2737
s 470 350 470 360 2739
s 470 370 530 370 2741
a 0 up 33 0 500 369 hct 100 LVL=
s 470 370 470 380 2743
s 470 380 530 380 2745
a 0 up 33 0 500 379 hct 100 LVL=
s 440 380 470 380 2747
a 0 up 33 0 485 379 hct 100 LVL=
s 470 350 470 310 2766
s 470 310 530 310 2768
w 2771
s 530 280 480 280 2770
s 440 330 480 330 2755
a 0 up 33 0 485 329 hct 100 LVL=
s 480 330 530 330 2774
s 480 280 480 330 2772
w 2776
s 530 290 450 290 2775
s 450 120 530 120 227
a 0 up 33 0 490 119 hct 100 LVL=
s 450 290 450 120 2777
w 2779
a 0 up 0:33 0 0 0 hln 100 LVL=
s 930 140 1010 140 244
a 0 up 33 0 970 139 hct 100 LVL=
s 930 100 930 140 242
s 910 100 930 100 256
a 0 up 33 0 918 99 hct 100 LVL=
w 2855
a 0 up 0:33 0 0 0 hln 100 LVL=
s 1010 200 990 200 172
a 0 up 33 0 1000 199 hct 100 LVL=
s 1010 160 1010 200 246
a 0 up 33 0 1012 180 hlt 100 LVL=
w 165
a 0 up 0:33 0 0 0 hln 100 LVL=
s 920 190 840 190 1877
a 0 up 33 0 835 189 hct 100 LVL=
w 2842
a 0 up 0:33 0 0 0 hln 100 LVL=
s 920 260 890 260 170
s 920 210 920 260 168
a 0 up 33 0 922 255 hlt 100 LVL=
w 2275
a 0 up 0:33 0 0 0 hln 100 V=
a 0 up 0:33 0 0 0 hln 100 LVL=
s 500 150 530 150 327
s 500 150 500 320 2197
a 0 up 33 0 502 471 hlt 100 LVL=
s 530 320 500 320 2763
s 500 320 500 530 2765
w 2884
a 0 sr 0:3 0 424 183 hcn 100 LABEL=AsClear
a 0 up 0:33 0 0 0 hln 100 LVL=
s 390 170 530 170 2900
a 0 sr 3 0 424 183 hcn 100 LABEL=AsClear
a 0 up 33 0 424 184 hct 100 LVL=
s 380 170 390 170 2510
s 310 170 380 170 2196
a 0 up 33 0 415 169 hct 100 LVL=
s 380 340 380 170 2760
s 530 340 380 340 2758
s 390 170 390 740 1492
s 390 740 540 740 1495
s 540 720 540 740 1498
w 2872
s 760 680 780 680 2873
s 760 690 760 680 2871
w 1501
a 0 up 0:33 0 0 0 hln 100 LVL=
a 0 up 0:33 0 0 0 hln 100 V=
a 0 sr 0:3 0 452 220 hln 100 LABEL=clr
s 500 690 510 690 1539
a 0 up 33 0 600 689 hct 100 LVL=
a 0 sr 3 0 600 688 hcn 100 LABEL=clr
s 500 590 500 690 2274
a 0 sr 3 0 500 417 hln 100 LABEL=clr
w 1008
a 0 up 0:33 0 0 0 hln 100 LVL=
s 570 670 600 670 1903
a 0 up 33 0 575 669 hct 100 LVL=
w 3087
a 0 up 0:33 0 0 0 hln 100 LVL=
s 900 1280 910 1280 3094
s 910 1280 910 1250 3092
s 910 1250 810 1250 3090
a 0 up 33 0 860 1249 hct 100 LVL=
s 810 1250 810 1220 3088
s 810 1220 840 1220 3086
w 513
a 0 up 0:33 0 0 0 hln 100 LVL=
s 900 910 910 910 512
s 910 910 910 880 514
s 910 880 810 880 516
a 0 up 33 0 860 879 hct 100 LVL=
s 810 880 810 850 518
s 810 850 840 850 520
w 523
a 0 up 0:33 0 0 0 hln 100 LVL=
s 900 1040 910 1040 522
s 910 1040 910 1010 524
s 910 1010 810 1010 526
a 0 up 33 0 860 1009 hct 100 LVL=
s 810 1010 810 970 528
s 810 970 840 970 530
w 594
a 0 sr 0 0 0 0 hln 100 LABEL=Serial_out
a 0 up 0:33 0 0 0 hln 100 LVL=
s 1160 790 900 790 3368
a 0 sr 3 0 1105 788 hcn 100 LABEL=Serial_out
a 0 up 33 0 1105 789 hct 100 LVL=
w 2183
a 0 up 0:33 0 0 0 hln 100 V=
s 1060 1110 1120 1110 3287
a 0 up 33 0 1090 1109 hct 100 V=
s 1060 1140 1060 1110 2182
s 1120 1110 1160 1110 3383
s 1120 1140 1120 1110 2161
w 3421
s 900 1160 910 1160 3420
s 910 1160 910 1130 3422
s 910 1130 810 1130 3424
s 810 1130 810 1100 3426
s 810 1100 840 1100 3428
w 3127
a 0 up 0:33 0 0 0 hln 100 LVL=
s 840 1310 590 1310 3314
a 0 up 33 0 765 1309 hct 100 LVL=
s 590 1310 590 1060 3316
a 0 up 33 0 592 1185 hlt 100 LVL=
s 590 1060 550 1060 3318
w 3133
a 0 up 0:33 0 0 0 hln 100 LVL=
s 840 1300 600 1300 3320
a 0 up 33 0 765 1299 hct 100 LVL=
s 600 1300 600 1050 3322
a 0 up 33 0 602 1175 hlt 100 LVL=
s 600 1050 550 1050 3324
w 3131
a 0 up 0:33 0 0 0 hln 100 LVL=
s 840 1290 610 1290 3326
a 0 up 33 0 765 1289 hct 100 LVL=
s 610 1290 610 1040 3328
a 0 up 33 0 612 1165 hlt 100 LVL=
s 610 1040 550 1040 3330
w 3129
a 0 up 0:33 0 0 0 hln 100 LVL=
s 840 1280 620 1280 3332
a 0 up 33 0 765 1279 hct 100 LVL=
s 620 1280 620 1030 3334
a 0 up 33 0 622 1155 hlt 100 LVL=
s 620 1030 550 1030 3336
w 3142
s 740 1190 740 1270 3143
s 840 1190 740 1190 3141
a 0 up 33 0 790 1189 hct 100 LVL=
s 740 1270 630 1270 3338
s 630 1270 630 1020 3340
s 630 1020 550 1020 3342
w 3148
s 730 1180 730 1260 3149
s 840 1180 730 1180 3147
a 0 up 33 0 785 1179 hct 100 LVL=
s 730 1260 640 1260 3344
s 640 1260 640 1010 3346
s 640 1010 550 1010 3348
w 3097
s 840 1170 720 1170 3100
a 0 up 33 0 780 1169 hct 100 LVL=
s 720 1170 720 1250 3098
s 720 1250 650 1250 3350
s 650 1250 650 1000 3352
s 650 1000 550 1000 3354
w 3360
s 710 1160 710 1240 3136
s 840 1160 710 1160 3134
a 0 up 33 0 775 1159 hct 100 LVL=
s 710 1240 660 1240 3386
s 660 1240 660 990 3388
s 660 990 550 990 3390
w 460
a 0 up 0:33 0 0 0 hln 100 LVL=
s 700 1070 700 980 461
s 840 1070 700 1070 463
a 0 up 33 0 770 1069 hct 100 LVL=
s 700 980 550 980 3392
w 466
a 0 up 0:33 0 0 0 hln 100 LVL=
s 710 1060 710 970 467
s 840 1060 710 1060 469
a 0 up 33 0 775 1059 hct 100 LVL=
s 710 970 550 970 3395
w 472
a 0 up 0:33 0 0 0 hln 100 LVL=
s 720 1050 720 960 473
s 840 1050 720 1050 475
a 0 up 33 0 780 1049 hct 100 LVL=
s 720 960 550 960 3397
w 478
a 0 up 0:33 0 0 0 hln 100 LVL=
s 730 1040 730 950 479
s 840 1040 730 1040 481
a 0 up 33 0 785 1039 hct 100 LVL=
s 730 950 550 950 3399
w 484
a 0 up 0:33 0 0 0 hln 100 LVL=
s 840 940 550 940 3402
a 0 up 33 0 765 939 hct 100 LVL=
w 507
a 0 up 0:33 0 0 0 hln 100 LVL=
s 840 930 550 930 3405
a 0 up 33 0 765 929 hct 100 LVL=
w 509
a 0 up 0:33 0 0 0 hln 100 LVL=
s 840 920 550 920 3407
a 0 up 33 0 765 919 hct 100 LVL=
w 511
a 0 up 0:33 0 0 0 hln 100 LVL=
s 840 910 550 910 3409
a 0 up 33 0 765 909 hct 100 LVL=
w 454
a 0 up 0:33 0 0 0 hln 100 LVL=
s 740 820 740 900 455
s 840 820 740 820 457
a 0 up 33 0 790 819 hct 100 LVL=
s 740 900 550 900 3411
w 448
a 0 up 0:33 0 0 0 hln 100 LVL=
s 730 810 730 890 449
s 840 810 730 810 451
a 0 up 33 0 785 809 hct 100 LVL=
s 730 890 550 890 3413
w 794
a 0 up 0:33 0 0 0 hln 100 LVL=
s 840 800 720 800 445
a 0 up 33 0 780 799 hct 100 LVL=
s 720 800 720 880 443
s 720 880 550 880 3415
w 436
a 0 up 0:33 0 0 0 hln 100 LVL=
s 710 790 710 870 437
s 840 790 710 790 439
a 0 up 33 0 775 789 hct 100 LVL=
s 710 870 550 870 3417
w 3430
a 0 sr 0:3 0 859 618 hcn 100 LABEL=out
a 0 up 0:33 0 0 0 hln 100 V=
a 0 up 0:33 0 0 0 hln 100 LVL=
s 590 620 1130 620 2543
a 0 sr 3 0 859 618 hcn 100 LABEL=out
s 420 620 590 620 1845
a 0 up 33 0 775 619 hct 100 LVL=
a 0 up 33 0 730 619 hct 100 V=
s 590 690 590 620 1027
s 570 690 590 690 1021
s 1130 620 1160 620 2332
a 0 sr 3 0 1137 618 hcn 100 LABEL=out
s 1130 270 1130 620 826
s 420 620 420 900 830
s 450 900 420 900 413
w 2526
a 0 up 0:33 0 0 0 hln 100 V=
s 290 880 290 470 2501
a 0 up 33 0 292 675 hlt 100 V=
s 320 880 290 880 2142
a 0 up 33 0 305 879 hct 100 V=
w 2094
a 0 sr 0:3 0 320 548 hcn 100 LABEL=Analog
a 0 up 0:33 0 0 0 hln 100 V=
s 450 880 360 880 3289
a 0 up 33 0 365 879 hct 100 V=
a 0 sr 3 0 446 878 hcn 100 LABEL=Analog
w 410
a 0 up 0:33 0 0 0 hln 100 V=
s 410 960 450 960 3370
s 410 960 410 970 2166
w 2020
a 0 sr 0:3 0 840 728 hcn 100 LABEL=shifter
a 0 up 0:33 0 0 0 hln 100 LVL=
s 900 730 780 730 984
a 0 sr 3 0 840 728 hcn 100 LABEL=shifter
a 0 up 33 0 840 729 hct 100 LVL=
s 850 670 900 670 980
s 900 670 900 730 982
s 780 1230 780 1110 3161
s 840 1230 780 1230 3074
s 780 1350 780 1230 3229
s 840 1350 780 1350 3066
s 840 1110 780 1110 553
s 840 860 780 860 562
s 780 860 780 730 2975
s 780 1110 780 980 2031
s 780 980 780 860 3236
s 840 980 780 980 559
w 2624
a 0 sr 0:3 0 325 118 hcn 100 LABEL=WCLK
a 0 up 0:33 0 0 0 hln 100 LVL=
s 310 120 350 120 226
a 0 sr 3 0 325 118 hcn 100 LABEL=WCLK
a 0 up 33 0 460 119 hct 100 LVL=
s 360 760 360 120 804
s 350 120 360 120 2525
s 360 120 400 120 2903
s 350 120 350 80 230
s 830 80 350 80 1606
s 770 760 360 760 802
s 770 830 770 760 813
s 840 1080 790 1080 538
s 790 1080 790 950 540
s 840 950 790 950 532
s 790 950 790 830 534
s 790 830 840 830 2339
s 770 830 790 830 857
s 770 840 770 830 575
s 770 840 840 840 573
s 770 960 770 840 571
s 770 960 840 960 569
s 770 1090 770 960 567
a 0 up 33 0 772 1025 hlt 100 LVL=
s 840 1090 770 1090 565
s 770 1330 840 1330 3052
s 770 1330 770 1210 3058
s 770 1210 840 1210 3056
s 770 1210 770 1090 3060
s 790 1200 790 1080 3218
s 790 1200 840 1200 3044
s 790 1320 790 1200 3221
s 840 1320 790 1320 3040
w 3077
a 0 up 0:33 0 0 0 hln 100 LVL=
s 840 1340 760 1340 3438
a 0 up 33 0 800 1339 hct 100 LVL=
w 2886
a 0 up 0:33 0 0 0 hln 100 LVL=
s 610 180 680 180 2523
s 610 180 590 180 2682
a 0 up 33 0 617 179 hct 100 LVL=
s 610 180 610 90 207
s 610 90 830 90 210
s 730 180 760 180 2904
s 730 180 730 530 2256
s 680 180 730 180 2905
s 680 640 680 180 992
s 760 660 780 660 955
s 760 640 760 660 953
s 680 640 760 640 951
s 730 530 740 530 2258
w 2889
a 0 up 0:33 0 0 0 hln 100 LVL=
s 720 190 720 200 2260
s 720 200 760 200 2520
s 620 190 670 190 2716
s 590 190 620 190 1936
a 0 up 33 0 615 189 hct 100 LVL=
s 620 190 620 110 212
s 620 110 830 110 215
s 670 190 720 190 2906
s 670 670 670 190 995
s 720 200 720 550 2847
s 680 670 670 670 961
s 720 550 740 550 2262
w 2864
a 0 up 0:33 0 0 0 hln 100 LVL=
a 0 sr 0:3 0 875 228 hcn 100 LABEL=count
s 900 540 950 540 308
a 0 sr 3 0 925 538 hcn 100 LABEL=count
a 0 up 33 0 925 539 hct 100 LVL=
s 950 600 950 540 1107
s 540 640 540 600 1056
s 540 600 950 600 896
a 0 up 33 0 745 599 hct 100 LVL=
w 2880
a 0 up 0:33 0 0 0 hln 100 LVL=
s 820 260 770 260 2858
s 1110 60 830 60 2785
s 830 60 830 70 2787
s 1110 350 1110 60 2797
s 590 350 640 350 2781
s 760 350 770 350 2850
s 760 210 760 350 2848
s 770 350 830 350 2862
s 770 260 770 350 2860
s 830 350 1110 350 2916
s 640 350 760 350 2918
s 640 710 640 350 2881
a 0 up 33 0 642 530 hlt 100 LVL=
s 680 710 640 710 2879
s 830 350 830 530 3465
w 3449
s 660 250 710 250 2908
s 630 250 660 250 2519
s 660 680 660 250 998
s 630 250 630 210 2824
s 680 680 660 680 970
s 590 210 630 210 2250
a 0 up 33 0 605 209 hct 100 LVL=
s 630 210 630 170 1871
s 630 170 760 170 156
s 630 170 630 120 2658
s 630 120 830 120 219
s 710 250 820 250 3468
s 710 250 710 540 3469
s 710 540 740 540 3471
w 3459
s 640 270 650 270 2515
s 650 700 650 270 1001
s 640 270 640 130 221
s 610 270 640 270 283
s 680 700 650 700 975
s 640 130 830 130 224
a 0 up 33 0 735 129 hct 100 LVL=
s 610 200 610 270 160
s 590 200 610 200 158
s 650 270 820 270 2912
s 820 270 820 550 3473
s 820 550 830 550 3475
w 3478
s 810 540 830 540 3477
w 112
a 0 up 0:33 0 0 0 hln 100 LVL=
s 480 100 530 100 1865
a 0 up 33 0 495 99 hct 100 LVL=
w 2751
s 480 270 530 270 2750
a 0 up 33 0 495 269 hct 100 LVL=
w 3480
s 300 1290 350 1290 3479
w 3482
s 300 1330 350 1330 3481
w 3484
s 300 1250 350 1250 3483
@junction
j 480 100
+ s 1254
+ w 112
j 440 160
+ s 130
+ w 60
j 480 160
+ w 60
+ w 60
j 520 130
+ w 3
+ w 3
j 470 180
+ w 3
+ w 3
j 470 190
+ w 3
+ w 3
j 470 200
+ w 3
+ w 3
j 440 210
+ s 131
+ w 3
j 470 210
+ w 3
+ w 3
j 610 180
+ w 2886
+ w 2886
j 1080 150
+ p 239 O
+ w 251
j 1130 230
+ p 823 1
+ w 251
j 620 190
+ w 2889
+ w 2889
j 530 300
+ p 2612 \ENT\
+ w 2728
j 530 350
+ p 2612 A
+ w 2734
j 530 360
+ p 2612 B
+ w 2734
j 470 360
+ w 2734
+ w 2734
j 530 370
+ p 2612 C
+ w 2734
j 470 370
+ w 2734
+ w 2734
j 530 380
+ p 2612 D
+ w 2734
j 470 380
+ w 2734
+ w 2734
j 440 380
+ s 2749
+ w 2734
j 530 270
+ p 2612 \G\
+ w 2751
j 480 270
+ s 2752
+ w 2751
j 530 340
+ p 2612 \ACLR\
+ w 2884
j 380 170
+ w 2884
+ w 2884
j 530 320
+ p 2612 \SCLR\
+ w 2275
j 470 350
+ w 2734
+ w 2734
j 530 310
+ p 2612 \ENP\
+ w 2734
j 530 280
+ p 2612 U/\D\
+ w 2771
j 530 330
+ p 2612 \LOAD\
+ w 2771
j 440 330
+ s 2757
+ w 2771
j 480 330
+ w 2771
+ w 2771
j 530 290
+ p 2612 CLK
+ w 2776
j 450 120
+ p 140 O
+ w 2776
j 1010 140
+ p 239 I0
+ w 2779
j 310 170
+ p 1864 1
+ w 2884
j 830 110
+ p 2623 I3
+ w 2889
j 830 90
+ p 2623 I2
+ w 2886
j 910 100
+ p 2623 O
+ w 2779
j 530 100
+ p 2611 \G\
+ w 112
j 530 120
+ p 2611 CLK
+ w 2776
j 530 110
+ p 2611 U/\D\
+ w 60
j 530 160
+ p 2611 \LOAD\
+ w 60
j 530 130
+ p 2611 \ENT\
+ w 3
j 530 140
+ p 2611 \ENP\
+ w 3
j 530 180
+ p 2611 A
+ w 3
j 530 190
+ p 2611 B
+ w 3
j 530 200
+ p 2611 C
+ w 3
j 530 210
+ p 2611 D
+ w 3
j 530 150
+ p 2611 \SCLR\
+ w 2275
j 530 170
+ p 2611 \ACLR\
+ w 2884
j 590 190
+ p 2611 QB
+ w 2889
j 590 180
+ p 2611 QA
+ w 2886
j 590 140
+ p 2611 \RCO\
+ w 2728
j 760 180
+ p 2798 I1
+ w 2886
j 630 170
+ w 3449
+ w 3449
j 630 210
+ w 3449
+ w 3449
j 640 270
+ w 3459
+ w 3459
j 760 200
+ p 2798 I2
+ w 2889
j 920 210
+ p 146 I0
+ w 2842
j 1010 160
+ p 239 I1
+ w 2855
j 840 190
+ p 2798 O
+ w 165
j 920 190
+ p 146 I1
+ w 165
j 990 200
+ p 146 O
+ w 2855
j 890 260
+ p 2857 O
+ w 2842
j 1130 270
+ p 823 2
+ w 3430
j 390 170
+ w 2884
+ w 2884
j 500 530
+ p 2272 OUT
+ w 2275
j 500 320
+ w 2275
+ w 2275
j 730 180
+ w 2886
+ w 2886
j 680 180
+ w 2886
+ w 2886
j 670 190
+ w 2889
+ w 2889
j 720 200
+ w 2889
+ w 2889
j 660 250
+ w 3449
+ w 3449
j 760 690
+ p 2870 O
+ w 2872
j 680 670
+ p 2870 I0
+ w 2889
j 540 640
+ p 1004 \S\
+ w 2864
j 540 720
+ p 1004 \R\
+ w 2884
j 1160 620
+ s 2149
+ w 3430
j 570 690
+ p 1004 CLK
+ w 3430
j 1130 620
+ w 3430
+ w 3430
j 510 690
+ p 1004 \Q\
+ w 1501
j 500 590
+ p 2272 IN
+ w 1501
j 570 670
+ p 1004 D
+ w 1008
j 600 670
+ s 1006
+ w 1008
j 760 350
+ w 2880
+ w 2880
j 770 350
+ w 2880
+ w 2880
j 820 260
+ p 2857 I1
+ w 2880
j 830 70
+ p 2623 I0
+ w 2880
j 590 350
+ p 2612 QA
+ w 2880
j 760 210
+ p 2798 I3
+ w 2880
j 830 350
+ w 2880
+ w 2880
j 640 350
+ w 2880
+ w 2880
j 680 710
+ p 2870 I3
+ w 2880
j 780 680
+ p 947 I1
+ w 2872
j 780 660
+ p 947 I0
+ w 2886
j 850 670
+ p 947 O
+ w 2020
j 350 120
+ w 2624
+ w 2624
j 360 120
+ w 2624
+ w 2624
j 400 120
+ p 140 I0
+ w 2624
j 310 120
+ s 2145
+ w 2624
j 830 80
+ p 2623 I1
+ w 2624
j 790 1080
+ w 2624
+ w 2624
j 790 950
+ w 2624
+ w 2624
j 840 1080
+ p 421 CLK2
+ w 2624
j 840 950
+ p 420 CLK2
+ w 2624
j 840 830
+ p 419 CLK2
+ w 2624
j 790 830
+ w 2624
+ w 2624
j 770 830
+ w 2624
+ w 2624
j 840 840
+ p 419 CLK1
+ w 2624
j 770 840
+ w 2624
+ w 2624
j 840 960
+ p 420 CLK1
+ w 2624
j 770 960
+ w 2624
+ w 2624
j 840 1090
+ p 421 CLK1
+ w 2624
j 840 1330
+ p 3153 CLK1
+ w 2624
j 770 1090
+ w 2624
+ w 2624
j 770 1210
+ w 2624
+ w 2624
j 790 1200
+ w 2624
+ w 2624
j 840 1320
+ p 3153 CLK2
+ w 2624
j 780 1230
+ w 2020
+ w 2020
j 780 860
+ w 2020
+ w 2020
j 780 1110
+ w 2020
+ w 2020
j 780 980
+ w 2020
+ w 2020
j 840 1350
+ p 3153 MODE
+ w 2020
j 840 1110
+ p 421 MODE
+ w 2020
j 840 860
+ p 419 MODE
+ w 2020
j 840 980
+ p 420 MODE
+ w 2020
j 840 1300
+ p 3153 B
+ w 3133
j 840 1290
+ p 3153 C
+ w 3131
j 840 1280
+ p 3153 D
+ w 3129
j 840 1310
+ p 3153 A
+ w 3127
j 900 1280
+ p 3153 QD
+ w 3087
j 840 1340
+ p 3153 SER
+ w 3077
j 840 810
+ p 419 B
+ w 448
j 840 820
+ p 419 A
+ w 454
j 840 790
+ p 419 D
+ w 436
j 840 930
+ p 420 B
+ w 507
j 840 920
+ p 420 C
+ w 509
j 840 910
+ p 420 D
+ w 511
j 840 940
+ p 420 A
+ w 484
j 840 1060
+ p 421 B
+ w 466
j 840 1050
+ p 421 C
+ w 472
j 840 1040
+ p 421 D
+ w 478
j 840 1070
+ p 421 A
+ w 460
j 840 800
+ p 419 C
+ w 794
j 900 910
+ p 420 QD
+ w 513
j 840 850
+ p 419 SER
+ w 513
j 900 1040
+ p 421 QD
+ w 523
j 840 970
+ p 420 SER
+ w 523
j 840 1160
+ p 3154 D
+ w 3360
j 840 1210
+ p 3154 CLK1
+ w 2624
j 840 1200
+ p 3154 CLK2
+ w 2624
j 840 1230
+ p 3154 MODE
+ w 2020
j 840 1180
+ p 3154 B
+ w 3148
j 840 1190
+ p 3154 A
+ w 3142
j 840 1170
+ p 3154 C
+ w 3097
j 840 1220
+ p 3154 SER
+ w 3087
j 1160 1110
+ s 2165
+ w 2183
j 1160 790
+ s 2150
+ w 594
j 900 790
+ p 419 QD
+ w 594
j 590 620
+ w 3430
+ w 3430
j 1060 1140
+ p 2177 1
+ w 2183
j 1120 1140
+ p 2153 +
+ w 2183
j 1120 1110
+ w 2183
+ w 2183
j 1060 1180
+ s 3384
+ p 2177 2
j 1120 1180
+ s 3385
+ p 2153 -
j 900 1160
+ p 3154 QD
+ w 3421
j 840 1100
+ p 421 SER
+ w 3421
j 550 1060
+ p 3419 DB0
+ w 3127
j 550 1050
+ p 3419 DB1
+ w 3133
j 550 1040
+ p 3419 DB2
+ w 3131
j 550 1030
+ p 3419 DB3
+ w 3129
j 550 1020
+ p 3419 DB4
+ w 3142
j 550 1010
+ p 3419 DB5
+ w 3148
j 550 1000
+ p 3419 DB6
+ w 3097
j 550 990
+ p 3419 DB7
+ w 3360
j 550 980
+ p 3419 DB8
+ w 460
j 550 970
+ p 3419 DB9
+ w 466
j 550 960
+ p 3419 DB10
+ w 472
j 550 950
+ p 3419 DB11
+ w 478
j 550 940
+ p 3419 DB12
+ w 484
j 550 930
+ p 3419 DB13
+ w 507
j 550 920
+ p 3419 DB14
+ w 509
j 550 910
+ p 3419 DB15
+ w 511
j 550 900
+ p 3419 DB16
+ w 454
j 550 890
+ p 3419 DB17
+ w 448
j 550 880
+ p 3419 DB18
+ w 794
j 550 870
+ p 3419 DB19
+ w 436
j 410 1010
+ p 2170 -
+ s 2173
j 290 470
+ s 2146
+ w 2526
j 450 900
+ p 3419 CNVRT
+ w 3430
j 450 960
+ p 3419 REF
+ w 410
j 410 970
+ p 2170 +
+ w 410
j 320 880
+ p 2091 1
+ w 2526
j 450 880
+ p 3419 IN
+ w 2094
j 360 880
+ p 2091 2
+ w 2094
j 500 1080
+ s 3376
+ p 3419 GND
j 760 1340
+ s 3437
+ w 3077
j 590 210
+ p 2611 QD
+ w 3449
j 830 120
+ p 2623 I4
+ w 3449
j 760 170
+ p 2798 I0
+ w 3449
j 820 250
+ p 2857 I0
+ w 3449
j 680 680
+ p 2870 I1
+ w 3449
j 650 270
+ w 3459
+ w 3459
j 830 130
+ p 2623 I5
+ w 3459
j 590 200
+ p 2611 QC
+ w 3459
j 680 700
+ p 2870 I2
+ w 3459
j 820 270
+ p 2857 I2
+ w 3459
j 740 530
+ p 3461 I0
+ w 2886
j 740 550
+ p 3461 I2
+ w 2889
j 900 540
+ p 3462 O
+ w 2864
j 830 530
+ p 3462 I0
+ w 2880
j 710 250
+ w 3449
+ w 3449
j 740 540
+ p 3461 I1
+ w 3449
j 830 550
+ p 3462 I2
+ w 3459
j 810 540
+ p 3461 O
+ w 3478
j 830 540
+ p 3462 I1
+ w 3478
j 300 1290
+ s 3485
+ w 3480
j 300 1330
+ s 3486
+ w 3482
j 350 1290
+ s 3487
+ w 3480
j 350 1330
+ s 3488
+ w 3482
j 300 1250
+ s 3489
+ w 3484
j 350 1250
+ s 3490
+ w 3484
@attributes
a 0 s 0:13 0 0 0 hln 100 PAGETITLE=
a 0 s 0:13 0 0 0 hln 100 PAGENO=1
a 0 s 0:13 0 0 0 hln 100 PAGESIZE=C
a 0 s 0:13 0 0 0 hln 100 PAGECOUNT=1
@graphics
t 2480 t 5 520 35 610 51 0 15
Up/Down Counter
v 2481 v 0 490 10
490 60
670 60
670 10
490 10
;
v 2482 v 0 500 20
500 50
660 50
660 20
500 20
;
t 2300 t 5 1400 87 1625 110 0 22
PARAMETER DEFINITIONS:
t 2303 t 6 1410 110 1870 260 0 298
tSC0 - CONVST/EOC* to CLOCK Skew (typical)
CONVWHI - CONVST/EOC* Pulse Width High
CONVWLO - CONVST/EOC* Pulse Width Low
CKDPDMAX, CKDPDMIN - Clock to Data Delay
CLKMAX, CLKMIN - Clock Frequency
CLKHI - Minimu Clock Pulse High
CLKLO - Maqximum CLK Pulse Low
IO_MODEL - Input/Output Model Name
t 2304 t 5 1400 404 1720 420 0 36
PIN DESCRIPTIONS: ((based on MAX170)
t 2305 t 6 1420 420 1750 580 0 189
AIN - Analog Input, 0 to 5V unipolar
VREF - Reference voltage output, -5.25V
DATA - Serial Data Output
CLOCK - Clock input
CONVST/EOC* - Conversion Start Input; End-of-Conversion output
t 2301 t 5 1400 689 1444 707 0 6
NOTES:
v 2484 v 0 940 750
940 780
1060 780
1060 750
940 750
;
v 2486 v 0 510 790
510 810
560 810
560 790
510 790
;
v 2487 v 0 500 780
500 820
570 820
570 780
510 780
;
v 2488 v 0 510 780
500 780
;
t 2485 t 5 520 795 551 811 0 3
ADC
t 2483 t 5 950 755 1060 780 0 15
 Shift Register
t 2302 t 5 1410 705 1890 830 0 355
1. Digital power is +5V. See the PSpice A/D User's Guide  for information on changing the digital power supplies for 3.3V power.
2. The input/output model can be changed through the parameter IO_MODEL. Recommended models are IO_HCT for CMOS and IO_ALS for TTL. Custom models may also be defined.
3. Digital input parasitics should be placed in I/O Model
