*version 9.2 177787429
u 3553
DSTM? 2
U? 25
V? 3
R? 4
? 14
@libraries
@analysis
.DC 0 0 0 0 1 1
.TRAN 1 0 0 0
+0 200ns
+1 20us
+3 10n
.PROBE 0 0 1 1 0 3
.LIB ADCserial.lib
.STMLIB ADCserial.stl
@targets
@attributes
@translators
a 0 u 13 0 0 0 hln 100 PCBOARDS=PCB
a 0 u 13 0 0 0 hln 100 PSPICE=PSPICE
a 0 u 13 0 0 0 hln 100 XILINX=XILINX
a 0 u 13 0 0 0 hln 100 TANGO=PCB
a 0 u 13 0 0 0 hln 100 SCICARDS=PCB
a 0 u 13 0 0 0 hln 100 PROTEL=PCB
a 0 u 13 0 0 0 hln 100 PCAD=PCB
a 0 u 13 0 0 0 hln 100 PADS=PCB
a 0 u 13 0 0 0 hln 100 ORCAD=PCB
a 0 u 13 0 0 0 hln 100 EDIF=PCB
a 0 u 13 0 0 0 hln 100 CADSTAR=PCB
a 0 u 13 0 0 0 hln 100 POLARIS=PSPICE
@setup
unconnectedPins 0
connectViaLabel 0
connectViaLocalLabels 0
NoStim4ExtIFPortsWarnings 1
AutoGenStim4ExtIFPorts 1
@index
pageloc 1 0 30834 
@status
n 0 97:09:13:14:22:55;876777775 e 
s 2833 97:09:13:15:41:36;876782496 e 
c 100:04:11:19:03:51;958097031
a 0 98:03:22:14:45:40;893281540 e 
*page 1 0 1520 970 iC
@ports
port 130 HI 440 160 h
port 131 LO 440 210 h
port 1254 LO 480 100 h
port 2749 LO 440 380 h
port 2752 LO 480 270 h
port 2757 HI 440 330 h
port 1006 LO 600 670 H
port 2146 IF_IN 290 470 h
a 1 xr 3 0 19 8 hcn 100 LABEL=AIN
port 2149 IF_OUT 1160 620 h
a 1 xr 3 0 31 8 hcn 100 LABEL=CONVST/EOC
port 2145 IF_IN 310 120 h
a 1 xr 3 0 19 8 hcn 100 LABEL=CLOCK
port 2165 IF_OUT 1160 1110 h
a 1 xr 3 0 31 8 hcn 100 LABEL=Vref
port 2150 IF_OUT 1160 790 h
a 1 xr 3 0 31 8 hcn 100 LABEL=DATA
port 2173 Agnd 410 1000 h
port 3376 Agnd 500 1120 h
port 3384 Agnd 1060 1180 h
port 3385 Agnd 1120 1180 h
port 3156 HI 750 1470 h
port 3547 interface 300 1350 h
a 1 xr 3 0 19 8 hcn 100 LABEL=VSS
port 3548 interface 300 1390 h
a 1 xr 3 0 19 8 hcn 100 LABEL=GND
port 3549 bubble 350 1350 d
a 1 x 3 0 0 0 hcn 100 LABEL=VSS
port 3550 bubble 350 1390 d
a 1 x 3 0 0 0 hcn 100 LABEL=GND
port 3551 interface 300 1310 h
a 1 xr 3 0 19 8 hcn 100 LABEL=VDD
port 3552 bubble 350 1310 d
a 1 x 3 0 0 0 hcn 100 LABEL=VDD
@parts
part 1864 DigClock 310 170 h
a 0 u 0 0 0 10 hln 100 DELAY=10ns
a 0 u 0 0 0 40 hln 100 STARTVAL=1
a 0 u 0 0 0 50 hln 100 OPPVAL=0
a 0 u 0 0 0 20 hln 100 ONTIME=10ns
a 0 u 0 0 0 30 hln 100 OFFTIME=100
a 1 ap 9 0 0 -2 hln 100 REFDES=DSTM1
a 0 a 0:13 0 0 0 hln 100 PKGREF=DSTM1
part 2611 DC_569 530 100 h
a 0 s 0:13 0 0 0 hln 100 PKGTYPE=
a 0 s 11 0 -8 138 hln 100 PART=DC_569
a 0 a 0:13 0 0 0 hln 100 PKGREF=U1
a 1 ap 9 0 40 -2 hln 100 REFDES=U1
part 239 AND2 1010 140 h
a 0 x 0 0 0 10 hcn 100 IMPL=
a 0 sp 11 0 12 48 hln 100 PART=AND2
a 0 s 0:13 0 0 0 hln 100 PKGTYPE=
a 0 a 0:13 0 0 0 hln 100 PKGREF=U2
a 0 ap 9 0 40 0 hln 100 REFDES=U2
part 146 OR2 920 210 U
a 0 sp 11 0 50 48 hln 100 PART=OR2
a 0 s 0:13 0 0 0 hln 100 PKGTYPE=
a 0 x 0 0 0 10 hcn 100 IMPL=
a 0 a 0:13 0 0 0 hln 100 PKGREF=U3
a 0 ap 9 0 40 0 hln 100 REFDES=U3
part 2612 DC_569 530 270 h
a 0 s 0:13 0 0 0 hln 100 PKGTYPE=
a 0 s 11 0 -8 138 hln 100 PART=DC_569
a 0 a 0:13 0 0 0 hln 100 PKGREF=U4
a 1 ap 9 0 40 -2 hln 100 REFDES=U4
part 2798 nor4 760 170 h
a 0 x 0 0 0 10 hcn 100 IMPL=
a 0 sp 11 0 52 48 hln 100 PART=nor4
a 0 s 0:13 0 0 0 hln 100 PKGTYPE=
a 0 a 0:13 0 0 0 hln 100 PKGREF=U5
a 0 ap 9 0 50 0 hln 100 REFDES=U5
part 2857 nor3 820 250 h
a 0 x 0 0 0 10 hcn 100 IMPL=
a 0 sp 11 0 44 48 hln 100 PART=nor3
a 0 s 0:13 0 0 0 hln 100 PKGTYPE=
a 0 a 0:13 0 0 0 hln 100 PKGREF=U6
a 0 ap 9 0 40 0 hln 100 REFDES=U6
part 2272 DELAY 500 590 v
a 0 u 13 0 32 38 hlb 100 DELAY=@tSC0
a 0 sp 11 0 26 80 hln 100 PART=DELAY
a 0 a 0:13 0 0 0 hln 100 PKGREF=U7
a 1 ap 9 0 40 -2 hln 100 REFDES=U7
part 1004 DFFRS 570 670 H
a 0 sp 11 0 36 88 hln 100 PART=DFFRS
a 0 s 0:13 0 0 0 hln 100 PKGTYPE=
a 0 x 0 0 0 10 hlb 100 IMPL=
a 0 a 0:13 0 0 0 hln 100 PKGREF=U8
a 0 ap 9 0 40 8 hln 100 REFDES=U8
part 947 AND2 780 660 h
a 0 x 0 0 0 10 hcn 100 IMPL=
a 0 sp 11 0 12 48 hln 100 PART=AND2
a 0 s 0:13 0 0 0 hln 100 PKGTYPE=
a 0 a 0:13 0 0 0 hln 100 PKGREF=U9
a 0 ap 9 0 40 0 hln 100 REFDES=U9
part 2870 nor4 680 670 h
a 0 x 0 0 0 10 hcn 100 IMPL=
a 0 sp 11 0 52 48 hln 100 PART=nor4
a 0 s 0:13 0 0 0 hln 100 PKGTYPE=
a 0 a 0:13 0 0 0 hln 100 PKGREF=U10
a 0 ap 9 0 50 0 hln 100 REFDES=U10
part 823 R 1130 230 d
a 0 sp 0 0 0 10 hlb 100 PART=R
a 0 s 0:13 0 0 0 hln 100 PKGTYPE=RC05
a 0 s 0:13 0 0 0 hln 100 GATE=
a 0 ap 9 0 15 0 hln 100 REFDES=R1
a 0 u 13 0 15 25 hln 100 VALUE=13k
a 0 a 0:13 0 0 0 hln 100 PKGREF=R1
part 3004 nan3 830 530 h
a 0 x 0 0 0 10 hcn 100 IMPL=
a 0 sp 11 0 2 50 hln 100 PART=nan3
a 0 s 0:13 0 0 0 hln 100 PKGTYPE=
a 0 a 0:13 0 0 0 hln 100 PKGREF=U11
a 0 ap 9 0 40 0 hln 100 REFDES=U11
part 3005 nor3 740 530 h
a 0 x 0 0 0 10 hcn 100 IMPL=
a 0 sp 11 0 44 48 hln 100 PART=nor3
a 0 s 0:13 0 0 0 hln 100 PKGTYPE=
a 0 a 0:13 0 0 0 hln 100 PKGREF=U12
a 0 ap 9 0 40 0 hln 100 REFDES=U12
part 140 INV 400 120 h
a 0 sp 11 0 40 40 hln 100 PART=INV
a 0 s 0:13 0 0 0 hln 100 PKGTYPE=
a 0 x 0 0 0 10 hln 100 IMPL=
a 0 a 0:13 0 0 0 hln 100 PKGREF=U13
a 0 ap 9 0 21 43 hln 100 REFDES=U13
part 2623 OR6 830 70 h
a 0 x 0 0 0 10 hcn 100 IMPL=
a 0 sp 11 0 60 58 hln 100 PART=OR6
a 0 s 0:13 0 0 0 hln 100 PKGTYPE=
a 0 a 0:13 0 0 0 hln 100 PKGREF=U14
a 0 ap 9 0 68 8 hln 100 REFDES=U14
part 2091 R 320 870 h
a 0 sp 0 0 0 10 hlb 100 PART=R
a 0 s 0:13 0 0 0 hln 100 PKGTYPE=RC05
a 0 s 0:13 0 0 0 hln 100 GATE=
a 0 u 13 0 15 25 hln 100 VALUE=2.5k
a 0 ap 9 0 15 0 hln 100 REFDES=R2
a 0 a 0:13 0 0 0 hln 100 PKGREF=R2
part 2170 VSRC 410 960 h
a 1 u 13 0 0 0 hcn 100 DC=5V
a 1 ap 9 0 20 10 hcn 100 REFDES=V1
a 0 a 0:13 0 0 0 hln 100 PKGREF=V1
part 2177 R 1060 1140 d
a 0 u 13 0 15 25 hln 100 VALUE=1G
a 0 sp 0 0 0 10 hlb 100 PART=R
a 0 s 0:13 0 0 0 hln 100 PKGTYPE=RC05
a 0 s 0:13 0 0 0 hln 100 GATE=
a 0 ap 9 0 15 0 hln 100 REFDES=R3
a 0 a 0:13 0 0 0 hln 100 PKGREF=R3
part 2153 Vsrc 1120 1140 h
a 1 u 13 13 49 22 hcn 100 DC=-5.25V
a 1 ap 9 0 20 10 hcn 100 REFDES=V2
a 0 a 0:13 0 0 0 hln 100 PKGREF=V2
part 420 dc_95_1 840 980 U
a 0 u 0:13 0 68 82 hlb 100 CKDMAX=@CKDPDMAX
a 0 u 0:13 0 68 70 hlb 100 CKDMIN=@CKDPDMIN
a 0 s 0:13 0 0 0 hln 100 PKGTYPE=
a 0 s 11 0 34 100 hln 100 PART=dc_95_1
a 0 u 0:13 0 68 36 hlb 100 CKHI=@CLKHI
a 0 u 0:13 0 68 26 hlb 100 CKLO=@CLKLO
a 0 u 0:13 0 68 58 hlb 100 CKMAX=@CLKMAX
a 0 u 0:13 0 68 46 hlb 100 CKMIN=@CLKMIN
a 0 a 0:13 0 0 0 hln 100 PKGREF=U16
a 1 ap 9 0 1 -3 hln 100 REFDES=U16
part 419 dc_95_1 840 860 U
a 1 x 0 0 0 0 hcn 100 TEMPLATE=X^@REFDES %MODE %CLK1 %CLK2 %SER %A %B %C %D %QA %QB %QC %QD %PWR %GND @MODEL PARAMS:\n+ IO_LEVEL=@IO_LEVEL MNTYMXDLY=@MNTYMXDLY \n+ CLKHI=@CKHI CLKLO=@CKLO CLKMAX=@CKMAX CLKMIN=@CKMIN CKDPDMIN=@CKDMIN CKDPDMAX=@CKDMAX
a 0 u 13 13 178 4 hlb 100 CKLO=@CLKLO
a 0 u 13 13 178 18 hlb 100 CKHI=@CLKHI
a 0 u 13 13 178 30 hlb 100 CKMIN=@CLKMIN
a 0 u 13 13 178 40 hlb 100 CKMAX=@CLKMAX
a 0 u 13 13 178 52 hlb 100 CKDMIN=@CKDPDMIN
a 0 u 13 13 178 64 hlb 100 CKDMAX=@CKDPDMAX
a 0 s 0:13 0 0 0 hln 100 PKGTYPE=
a 0 s 11 0 36 99 hln 100 PART=dc_95_1
a 0 a 0:13 0 0 0 hln 100 PKGREF=U20
a 1 ap 9 0 1 -3 hln 100 REFDES=U20
part 421 dc_95_1 840 1110 U
a 0 u 0:13 0 68 82 hlb 100 CKDMAX=@CKDPDMAX
a 0 u 0:13 0 68 70 hlb 100 CKDMIN=@CKDPDMIN
a 0 u 0:13 0 68 46 hlb 100 CKMIN=@CLKMIN
a 0 u 0:13 0 68 58 hlb 100 CKMAX=@CLKMAX
a 0 u 0:13 0 68 26 hlb 100 CKLO=@CLKLO
a 0 u 0:13 0 68 36 hlb 100 CKHI=@CLKHI
a 0 s 11 0 40 100 hln 100 PART=dc_95_1
a 0 s 0:13 0 0 0 hln 100 PKGTYPE=
a 0 a 0:13 0 0 0 hln 100 PKGREF=U15
a 1 ap 9 0 1 -3 hln 100 REFDES=U15
part 3155 dc_95_1 840 1480 U
a 0 u 0:13 0 68 82 hlb 100 CKDMAX=@CKDPDMAX
a 0 u 0:13 0 68 70 hlb 100 CKDMIN=@CKDPDMIN
a 0 u 0:13 0 68 46 hlb 100 CKMIN=@CLKMIN
a 0 u 0:13 0 68 58 hlb 100 CKMAX=@CLKMAX
a 0 u 0:13 0 68 26 hlb 100 CKLO=@CLKLO
a 0 u 0:13 0 68 36 hlb 100 CKHI=@CLKHI
a 0 s 11 0 40 100 hln 100 PART=dc_95_1
a 0 s 0:13 0 0 0 hln 100 PKGTYPE=
a 0 a 0:13 0 0 0 hln 100 PKGREF=U19
a 1 ap 9 0 1 -3 hln 100 REFDES=U19
part 3154 dc_95_1 840 1230 U
a 1 x 0 0 0 0 hcn 100 TEMPLATE=X^@REFDES %MODE %CLK1 %CLK2 %SER %A %B %C %D %QA %QB %QC %QD %PWR %GND @MODEL PARAMS:\n+ IO_LEVEL=@IO_LEVEL MNTYMXDLY=@MNTYMXDLY \n+ CLKHI=@CKHI CLKLO=@CKLO CLKMAX=@CKMAX CLKMIN=@CKMIN CKDPDMIN=@CKDMIN CKDPDMAX=@CKDMAX
a 0 u 13 13 178 4 hlb 100 CKLO=@CLKLO
a 0 u 13 13 178 18 hlb 100 CKHI=@CLKHI
a 0 u 13 13 178 30 hlb 100 CKMIN=@CLKMIN
a 0 u 13 13 178 40 hlb 100 CKMAX=@CLKMAX
a 0 u 13 13 178 52 hlb 100 CKDMIN=@CKDPDMIN
a 0 u 13 13 178 64 hlb 100 CKDMAX=@CKDPDMAX
a 0 s 0:13 0 0 0 hln 100 PKGTYPE=
a 0 s 11 0 36 99 hln 100 PART=dc_95_1
a 0 a 0:13 0 0 0 hln 100 PKGREF=U18
a 1 ap 9 0 1 -3 hln 100 REFDES=U18
part 3153 dc_95_1 840 1350 U
a 0 u 0:13 0 68 82 hlb 100 CKDMAX=@CKDPDMAX
a 0 u 0:13 0 68 70 hlb 100 CKDMIN=@CKDPDMIN
a 0 s 0:13 0 0 0 hln 100 PKGTYPE=
a 0 s 11 0 34 100 hln 100 PART=dc_95_1
a 0 u 0:13 0 68 36 hlb 100 CKHI=@CLKHI
a 0 u 0:13 0 68 26 hlb 100 CKLO=@CLKLO
a 0 u 0:13 0 68 58 hlb 100 CKMAX=@CLKMAX
a 0 u 0:13 0 68 46 hlb 100 CKMIN=@CLKMIN
a 0 a 0:13 0 0 0 hln 100 PKGREF=U17
a 1 ap 9 0 1 -3 hln 100 REFDES=U17
part 3020 dc_adc24 450 870 h
a 0 sp 11 0 84 316 hrn 100 PART=dc_adc24
a 0 s 0:13 0 0 0 hln 100 PKGTYPE=
a 0 u 13 13 -80 342 hlb 100 CNVWHI=@CONVWHI
a 0 u 13 13 -80 328 hlb 100 CNVWLO=@CONVWLO
a 0 a 0:13 0 0 0 hln 100 PKGREF=U21
a 0 ap 9 0 12 33 hln 100 REFDES=U21
part 1 titleblk 2020 1520 h
a 1 s 13 0 350 10 hcn 100 PAGESIZE=C
a 1 x 13 0 180 60 hcn 100 PAGETITLE=A/C converter - Serial Interface
a 1 s 13 0 340 95 hrn 100 PAGECOUNT=1
a 1 s 13 0 300 95 hrn 100 PAGENO=1
@conn
w 60
a 0 up 0:33 0 0 0 hln 100 LVL=
s 440 160 480 160 73
a 0 up 33 0 485 159 hct 100 LVL=
s 480 160 530 160 2466
s 480 110 480 160 75
s 530 110 480 110 81
w 3
a 0 up 0:33 0 0 0 hln 100 LVL=
s 520 140 530 140 16
a 0 up 33 0 525 139 hct 100 LVL=
s 520 140 520 130 18
s 520 130 530 130 728
s 470 130 520 130 20
a 0 up 33 0 505 129 hct 100 LVL=
s 470 130 470 180 24
s 530 180 470 180 26
a 0 up 33 0 525 179 hct 100 LVL=
s 530 190 470 190 28
a 0 up 33 0 515 189 hct 100 LVL=
s 470 190 470 200 722
s 470 180 470 190 30
s 470 200 530 200 34
a 0 up 33 0 500 199 hct 100 LVL=
s 470 200 470 210 36
s 470 210 530 210 717
a 0 up 33 0 500 209 hct 100 LVL=
s 440 210 470 210 38
a 0 up 33 0 485 209 hct 100 LVL=
w 251
a 0 up 0:33 0 0 0 hln 100 V=
a 0 up 0:33 0 0 0 hln 100 LVL=
s 1080 150 1130 150 250
a 0 up 33 0 1105 149 hct 100 LVL=
a 0 up 33 0 1105 149 hct 100 V=
s 1130 150 1130 230 824
w 2728
a 0 up 0:33 0 0 0 hln 100 LVL=
s 520 230 600 230 2617
s 600 140 590 140 2621
s 600 230 600 140 2619
a 0 up 33 0 602 185 hlt 100 LVL=
s 520 300 520 230 2615
s 530 300 520 300 2613
w 2734
a 0 up 0:33 0 0 0 hln 100 LVL=
s 530 350 470 350 2733
a 0 up 33 0 525 349 hct 100 LVL=
s 530 360 470 360 2735
a 0 up 33 0 515 359 hct 100 LVL=
s 470 360 470 370 2737
s 470 350 470 360 2739
s 470 370 530 370 2741
a 0 up 33 0 500 369 hct 100 LVL=
s 470 370 470 380 2743
s 470 380 530 380 2745
a 0 up 33 0 500 379 hct 100 LVL=
s 440 380 470 380 2747
a 0 up 33 0 485 379 hct 100 LVL=
s 470 350 470 310 2766
s 470 310 530 310 2768
a 0 up 33 0 500 309 hct 100 LVL=
w 2771
a 0 up 0:33 0 0 0 hln 100 LVL=
s 530 280 480 280 2770
s 440 330 480 330 2755
a 0 up 33 0 485 329 hct 100 LVL=
s 480 330 530 330 2774
s 480 280 480 330 2772
a 0 up 33 0 482 305 hlt 100 LVL=
w 2776
a 0 up 0:33 0 0 0 hln 100 LVL=
s 530 290 450 290 2775
s 450 120 530 120 227
a 0 up 33 0 490 119 hct 100 LVL=
s 450 290 450 120 2777
a 0 up 33 0 452 205 hlt 100 LVL=
w 2779
a 0 up 0:33 0 0 0 hln 100 LVL=
s 930 140 1010 140 244
a 0 up 33 0 970 139 hct 100 LVL=
s 930 100 930 140 242
s 910 100 930 100 256
a 0 up 33 0 918 99 hct 100 LVL=
w 2855
a 0 up 0:33 0 0 0 hln 100 LVL=
s 1010 200 990 200 172
a 0 up 33 0 1000 199 hct 100 LVL=
s 1010 160 1010 200 246
a 0 up 33 0 1012 180 hlt 100 LVL=
w 165
a 0 up 0:33 0 0 0 hln 100 LVL=
s 920 190 840 190 1877
a 0 up 33 0 835 189 hct 100 LVL=
w 2842
a 0 up 0:33 0 0 0 hln 100 LVL=
s 920 260 890 260 170
s 920 210 920 260 168
a 0 up 33 0 922 255 hlt 100 LVL=
w 2275
a 0 up 0:33 0 0 0 hln 100 V=
a 0 up 0:33 0 0 0 hln 100 LVL=
s 500 150 530 150 327
s 500 150 500 320 2197
a 0 up 33 0 502 471 hlt 100 LVL=
s 530 320 500 320 2763
s 500 320 500 530 2765
w 2884
a 0 sr 0:3 0 424 183 hcn 100 LABEL=AsClear
a 0 up 0:33 0 0 0 hln 100 LVL=
s 390 170 530 170 2900
a 0 sr 3 0 424 183 hcn 100 LABEL=AsClear
a 0 up 33 0 424 184 hct 100 LVL=
s 380 170 390 170 2510
s 310 170 380 170 2196
a 0 up 33 0 415 169 hct 100 LVL=
s 380 340 380 170 2760
s 530 340 380 340 2758
s 390 170 390 740 1492
s 390 740 540 740 1495
s 540 720 540 740 1498
w 2872
a 0 up 0:33 0 0 0 hln 100 LVL=
s 760 680 780 680 2873
a 0 up 33 0 770 679 hct 100 LVL=
s 760 690 760 680 2871
w 1501
a 0 up 0:33 0 0 0 hln 100 LVL=
a 0 up 0:33 0 0 0 hln 100 V=
a 0 sr 0:3 0 452 220 hln 100 LABEL=clr
s 500 690 510 690 1539
a 0 up 33 0 600 689 hct 100 LVL=
a 0 sr 3 0 600 688 hcn 100 LABEL=clr
s 500 590 500 690 2274
a 0 sr 3 0 500 417 hln 100 LABEL=clr
w 1008
a 0 up 0:33 0 0 0 hln 100 LVL=
s 570 670 600 670 1903
a 0 up 33 0 575 669 hct 100 LVL=
w 2864
a 0 up 0:33 0 0 0 hln 100 LVL=
a 0 sr 0:3 0 875 228 hcn 100 LABEL=count
s 900 540 950 540 308
a 0 sr 3 0 925 538 hcn 100 LABEL=count
a 0 up 33 0 925 539 hct 100 LVL=
s 950 600 950 540 1107
s 540 640 540 600 1056
s 540 600 950 600 896
a 0 up 33 0 745 599 hct 100 LVL=
w 2886
a 0 up 0:33 0 0 0 hln 100 LVL=
s 610 180 680 180 2523
s 610 180 590 180 2682
a 0 up 33 0 617 179 hct 100 LVL=
s 610 180 610 90 207
s 610 90 830 90 210
s 730 180 760 180 2904
s 730 180 730 530 2256
s 680 180 730 180 2905
s 680 640 680 180 992
s 760 660 780 660 955
s 760 640 760 660 953
s 680 640 760 640 951
s 730 530 740 530 2258
w 2889
a 0 up 0:33 0 0 0 hln 100 LVL=
s 720 190 720 200 2260
s 720 200 760 200 2520
s 620 190 670 190 2716
s 590 190 620 190 1936
a 0 up 33 0 615 189 hct 100 LVL=
s 620 190 620 110 212
s 620 110 830 110 215
s 670 190 720 190 2906
s 670 670 670 190 995
s 720 200 720 550 2847
s 680 670 670 670 961
s 720 550 740 550 2262
w 966
a 0 up 0:33 0 0 0 hln 100 LVL=
s 640 130 830 130 224
a 0 up 33 0 735 129 hct 100 LVL=
s 640 270 640 130 221
s 640 270 650 270 2515
s 610 270 640 270 283
s 590 200 610 200 158
s 610 200 610 270 160
s 650 270 700 270 2912
s 650 700 650 270 1001
s 680 700 650 700 975
s 700 270 820 270 3008
s 700 540 700 270 1106
s 700 540 740 540 3009
w 2821
a 0 up 0:33 0 0 0 hln 100 LVL=
s 630 250 660 250 2519
s 590 210 630 210 2250
a 0 up 33 0 605 209 hct 100 LVL=
s 630 210 630 170 1871
s 630 170 760 170 156
s 630 170 630 120 2658
s 630 120 830 120 219
s 630 250 630 210 2824
s 710 250 820 250 2908
s 710 570 710 250 1099
s 660 250 710 250 2910
s 660 680 660 250 998
s 680 680 660 680 970
s 830 570 710 570 1097
s 830 570 830 550 2264
w 3017
a 0 up 0:33 0 0 0 hln 100 LVL=
s 810 540 830 540 3016
a 0 up 33 0 820 539 hct 100 LVL=
w 2880
a 0 up 0:33 0 0 0 hln 100 LVL=
s 820 260 770 260 2858
s 1110 60 830 60 2785
s 830 60 830 70 2787
s 1110 350 1110 60 2797
s 590 350 640 350 2781
s 760 350 770 350 2850
s 760 210 760 350 2848
s 770 350 830 350 2862
s 770 260 770 350 2860
s 830 350 1110 350 2916
s 640 350 760 350 2918
s 640 710 640 350 2881
a 0 up 33 0 642 530 hlt 100 LVL=
s 680 710 640 710 2879
s 830 350 830 530 3018
w 2526
a 0 up 0:33 0 0 0 hln 100 V=
s 290 870 290 470 2501
a 0 up 33 0 292 670 hlt 100 V=
s 320 870 290 870 2142
a 0 up 33 0 305 869 hct 100 V=
w 594
a 0 sr 0 0 0 0 hln 100 LABEL=Serial_out
a 0 up 0:33 0 0 0 hln 100 LVL=
s 1160 790 900 790 3368
a 0 sr 3 0 1105 788 hcn 100 LABEL=Serial_out
a 0 up 33 0 1105 789 hct 100 LVL=
w 410
a 0 up 0:33 0 0 0 hln 100 V=
s 410 950 410 960 2166
s 410 950 450 950 3370
a 0 up 33 0 430 949 hct 100 V=
w 2681
a 0 sr 0:3 0 805 298 hcn 100 LABEL=out
a 0 up 0:33 0 0 0 hln 100 V=
a 0 up 0:33 0 0 0 hln 100 LVL=
s 1130 620 1160 620 2332
a 0 sr 3 0 1137 618 hcn 100 LABEL=out
s 1130 270 1130 620 826
s 570 690 590 690 1021
s 590 690 590 620 1027
s 590 620 1130 620 2543
a 0 sr 3 0 859 618 hcn 100 LABEL=out
s 420 620 590 620 1845
a 0 up 33 0 775 619 hct 100 LVL=
a 0 up 33 0 730 619 hct 100 V=
s 450 890 420 890 413
s 420 620 420 890 830
w 2183
a 0 up 0:33 0 0 0 hln 100 V=
s 1060 1110 1120 1110 3287
a 0 up 33 0 1090 1109 hct 100 V=
s 1060 1140 1060 1110 2182
s 1120 1110 1160 1110 3383
s 1120 1140 1120 1110 2161
w 460
a 0 up 0:33 0 0 0 hln 100 LVL=
s 700 1070 700 980 461
s 840 1070 700 1070 463
a 0 up 33 0 770 1069 hct 100 LVL=
s 700 980 550 980 3392
w 466
a 0 up 0:33 0 0 0 hln 100 LVL=
s 710 1060 710 970 467
s 840 1060 710 1060 469
a 0 up 33 0 775 1059 hct 100 LVL=
s 710 970 550 970 3395
w 472
a 0 up 0:33 0 0 0 hln 100 LVL=
s 720 1050 720 960 473
s 840 1050 720 1050 475
a 0 up 33 0 780 1049 hct 100 LVL=
s 720 960 550 960 3397
w 507
a 0 up 0:33 0 0 0 hln 100 LVL=
s 840 930 550 930 3405
a 0 up 33 0 765 929 hct 100 LVL=
w 509
a 0 up 0:33 0 0 0 hln 100 LVL=
s 840 920 550 920 3407
a 0 up 33 0 765 919 hct 100 LVL=
w 511
a 0 up 0:33 0 0 0 hln 100 LVL=
s 840 910 550 910 3409
a 0 up 33 0 765 909 hct 100 LVL=
w 454
a 0 up 0:33 0 0 0 hln 100 LVL=
s 740 820 740 900 455
s 840 820 740 820 457
a 0 up 33 0 790 819 hct 100 LVL=
s 740 900 550 900 3411
w 448
a 0 up 0:33 0 0 0 hln 100 LVL=
s 730 810 730 890 449
s 840 810 730 810 451
a 0 up 33 0 785 809 hct 100 LVL=
s 730 890 550 890 3413
w 794
a 0 up 0:33 0 0 0 hln 100 LVL=
s 840 800 720 800 445
a 0 up 33 0 780 799 hct 100 LVL=
s 720 800 720 880 443
s 720 880 550 880 3415
w 436
a 0 up 0:33 0 0 0 hln 100 LVL=
s 710 790 710 870 437
s 840 790 710 790 439
a 0 up 33 0 775 789 hct 100 LVL=
s 710 870 550 870 3417
w 478
a 0 up 0:33 0 0 0 hln 100 LVL=
s 730 1040 730 950 479
s 840 1040 730 1040 481
a 0 up 33 0 785 1039 hct 100 LVL=
s 730 950 550 950 3399
w 484
a 0 up 0:33 0 0 0 hln 100 LVL=
s 840 940 550 940 3402
a 0 up 33 0 765 939 hct 100 LVL=
w 3065
s 750 1470 840 1470 3419
a 0 up 33 0 745 1469 hct 100 LVL=
w 112
a 0 up 0:33 0 0 0 hln 100 LVL=
s 480 100 530 100 1865
a 0 up 33 0 495 99 hct 100 LVL=
w 2751
a 0 up 0:33 0 0 0 hln 100 LVL=
s 480 270 530 270 2750
a 0 up 33 0 495 269 hct 100 LVL=
w 3077
a 0 up 0:33 0 0 0 hln 100 LVL=
s 900 1410 910 1410 3084
s 910 1410 910 1380 3082
s 910 1380 810 1380 3080
a 0 up 33 0 860 1379 hct 100 LVL=
s 810 1380 810 1340 3078
s 810 1340 840 1340 3076
w 523
a 0 up 0:33 0 0 0 hln 100 LVL=
s 900 1040 910 1040 522
s 910 1040 910 1010 524
s 910 1010 810 1010 526
a 0 up 33 0 860 1009 hct 100 LVL=
s 810 1010 810 970 528
s 810 970 840 970 530
w 513
a 0 up 0:33 0 0 0 hln 100 LVL=
s 900 910 910 910 512
s 910 910 910 880 514
s 910 880 810 880 516
a 0 up 33 0 860 879 hct 100 LVL=
s 810 880 810 850 518
s 810 850 840 850 520
w 3422
a 0 up 0:33 0 0 0 hln 100 LVL=
s 900 1160 910 1160 3421
s 910 1160 910 1130 3423
s 910 1130 810 1130 3425
a 0 up 33 0 860 1129 hct 100 LVL=
s 810 1130 810 1100 3427
s 810 1100 840 1100 3429
w 2624
a 0 sr 0:3 0 325 118 hcn 100 LABEL=WCLK
a 0 up 0:33 0 0 0 hln 100 LVL=
s 310 120 350 120 226
a 0 sr 3 0 325 118 hcn 100 LABEL=WCLK
a 0 up 33 0 460 119 hct 100 LVL=
s 360 760 360 120 804
s 350 120 360 120 2525
s 360 120 400 120 2903
s 350 120 350 80 230
s 830 80 350 80 1606
s 770 830 770 760 813
s 770 830 790 830 857
s 770 840 770 830 575
s 790 950 790 830 534
s 790 830 840 830 2339
s 770 840 840 840 573
s 770 960 770 840 571
s 790 1080 790 950 540
s 840 950 790 950 532
s 770 960 840 960 569
s 770 1090 770 960 567
a 0 up 33 0 772 1025 hlt 100 LVL=
s 840 1080 790 1080 538
s 790 1200 790 1080 3218
s 840 1090 770 1090 565
s 770 1210 770 1090 3060
s 790 1200 840 1200 3044
s 790 1320 790 1200 3221
s 770 1330 770 1210 3058
s 770 1210 840 1210 3056
s 790 1450 790 1320 3042
s 840 1320 790 1320 3040
s 770 1460 770 1330 3054
a 0 up 33 0 772 1395 hlt 100 LVL=
s 770 1330 840 1330 3052
s 840 1450 790 1450 3038
s 840 1460 770 1460 3050
s 360 760 770 760 3462
w 3087
a 0 up 0:33 0 0 0 hln 100 LVL=
s 900 1280 910 1280 3094
s 910 1280 910 1250 3092
s 910 1250 810 1250 3090
a 0 up 33 0 860 1249 hct 100 LVL=
s 810 1250 810 1220 3088
s 810 1220 840 1220 3086
w 2094
a 0 sr 0:3 0 320 548 hcn 100 LABEL=Analog
a 0 up 0:33 0 0 0 hln 100 V=
s 450 870 360 870 3477
a 0 sr 3 0 446 868 hcn 100 LABEL=Analog
a 0 up 33 0 365 869 hct 100 V=
w 2020
a 0 sr 0:3 0 840 728 hcn 100 LABEL=shifter
a 0 up 0:33 0 0 0 hln 100 LVL=
s 900 730 780 730 984
a 0 sr 3 0 840 728 hcn 100 LABEL=shifter
a 0 up 33 0 840 729 hct 100 LVL=
s 850 670 900 670 980
s 900 670 900 730 982
s 780 1230 780 1110 3161
s 840 1230 780 1230 3074
s 840 1480 780 1480 3070
s 780 1350 780 1230 3229
s 840 1350 780 1350 3066
s 840 1110 780 1110 553
s 840 860 780 860 562
s 780 1110 780 980 2031
s 780 980 780 860 3236
s 840 980 780 980 559
s 780 1480 780 1350 3442
s 780 860 780 730 3463
w 3492
a 0 up 0:33 0 0 0 hln 100 LVL=
s 710 1160 710 1240 3136
s 840 1160 710 1160 3475
a 0 up 33 0 775 1159 hct 100 LVL=
s 660 990 550 990 3390
s 660 1240 660 990 3496
a 0 up 33 0 662 1115 hlt 100 LVL=
s 660 1240 710 1240 3507
w 3484
a 0 up 0:33 0 0 0 hln 100 LVL=
s 720 1170 720 1250 3098
s 840 1170 720 1170 3100
a 0 up 33 0 780 1169 hct 100 LVL=
s 650 1000 550 1000 3354
s 650 1250 650 1000 3497
a 0 up 33 0 652 1125 hlt 100 LVL=
s 650 1250 720 1250 3509
w 3486
a 0 up 0:33 0 0 0 hln 100 LVL=
s 730 1180 730 1260 3149
s 840 1180 730 1180 3147
a 0 up 33 0 785 1179 hct 100 LVL=
s 640 1010 550 1010 3439
s 640 1260 640 1010 3498
a 0 up 33 0 642 1135 hlt 100 LVL=
s 640 1260 730 1260 3511
w 3142
a 0 up 0:33 0 0 0 hln 100 LVL=
s 630 1020 550 1020 3438
s 630 1020 630 1270 3513
s 740 1190 740 1270 3143
s 840 1190 740 1190 3141
a 0 up 33 0 790 1189 hct 100 LVL=
s 630 1270 740 1270 3515
w 3129
a 0 up 0:33 0 0 0 hln 100 LVL=
s 620 1030 550 1030 3336
s 620 1030 620 1280 3517
s 620 1280 840 1280 3519
a 0 up 33 0 765 1279 hct 100 LVL=
w 3131
a 0 up 0:33 0 0 0 hln 100 LVL=
s 610 1040 550 1040 3330
s 610 1040 610 1290 3521
s 610 1290 840 1290 3523
a 0 up 33 0 765 1289 hct 100 LVL=
w 3133
a 0 up 0:33 0 0 0 hln 100 LVL=
s 600 1300 600 1050 3322
a 0 up 33 0 602 1175 hlt 100 LVL=
s 600 1050 550 1050 3324
s 600 1300 840 1300 3525
a 0 up 33 0 765 1299 hct 100 LVL=
w 3127
a 0 up 0:33 0 0 0 hln 100 LVL=
s 590 1060 550 1060 3318
s 590 1060 590 1310 3527
s 590 1310 840 1310 3529
a 0 up 33 0 765 1309 hct 100 LVL=
w 3491
a 0 up 0:33 0 0 0 hln 100 LVL=
s 730 1410 730 1320 3110
s 840 1410 730 1410 3108
a 0 up 33 0 785 1409 hct 100 LVL=
s 580 1070 550 1070 3312
s 580 1320 580 1070 3502
a 0 up 33 0 582 1195 hlt 100 LVL=
s 580 1320 730 1320 3531
w 3493
a 0 up 0:33 0 0 0 hln 100 LVL=
s 720 1420 720 1330 3116
s 840 1420 720 1420 3114
a 0 up 33 0 780 1419 hct 100 LVL=
s 570 1080 550 1080 3306
s 570 1330 570 1080 3501
a 0 up 33 0 572 1205 hlt 100 LVL=
s 570 1330 720 1330 3533
w 3494
a 0 up 0:33 0 0 0 hln 100 LVL=
s 710 1430 710 1340 3122
s 840 1430 710 1430 3120
a 0 up 33 0 775 1429 hct 100 LVL=
s 560 1090 550 1090 3300
s 560 1340 560 1090 3500
a 0 up 33 0 562 1215 hlt 100 LVL=
s 560 1340 710 1340 3537
w 3495
a 0 up 0:33 0 0 0 hln 100 LVL=
s 700 1440 700 1350 3104
s 840 1440 700 1440 3102
a 0 up 33 0 770 1439 hct 100 LVL=
s 550 1350 550 1100 3499
a 0 up 33 0 552 1225 hlt 100 LVL=
s 550 1350 700 1350 3539
w 3542
s 300 1350 350 1350 3541
w 3544
s 300 1390 350 1390 3543
w 3546
s 300 1310 350 1310 3545
@junction
j 480 100
+ s 1254
+ w 112
j 440 160
+ s 130
+ w 60
j 480 160
+ w 60
+ w 60
j 520 130
+ w 3
+ w 3
j 470 180
+ w 3
+ w 3
j 470 190
+ w 3
+ w 3
j 470 200
+ w 3
+ w 3
j 440 210
+ s 131
+ w 3
j 470 210
+ w 3
+ w 3
j 610 180
+ w 2886
+ w 2886
j 1080 150
+ p 239 O
+ w 251
j 1130 230
+ p 823 1
+ w 251
j 620 190
+ w 2889
+ w 2889
j 530 300
+ p 2612 \ENT\
+ w 2728
j 530 350
+ p 2612 A
+ w 2734
j 530 360
+ p 2612 B
+ w 2734
j 470 360
+ w 2734
+ w 2734
j 530 370
+ p 2612 C
+ w 2734
j 470 370
+ w 2734
+ w 2734
j 530 380
+ p 2612 D
+ w 2734
j 470 380
+ w 2734
+ w 2734
j 440 380
+ s 2749
+ w 2734
j 530 270
+ p 2612 \G\
+ w 2751
j 480 270
+ s 2752
+ w 2751
j 530 340
+ p 2612 \ACLR\
+ w 2884
j 380 170
+ w 2884
+ w 2884
j 530 320
+ p 2612 \SCLR\
+ w 2275
j 470 350
+ w 2734
+ w 2734
j 530 310
+ p 2612 \ENP\
+ w 2734
j 530 280
+ p 2612 U/\D\
+ w 2771
j 530 330
+ p 2612 \LOAD\
+ w 2771
j 440 330
+ s 2757
+ w 2771
j 480 330
+ w 2771
+ w 2771
j 530 290
+ p 2612 CLK
+ w 2776
j 450 120
+ p 140 O
+ w 2776
j 1010 140
+ p 239 I0
+ w 2779
j 310 170
+ p 1864 1
+ w 2884
j 830 130
+ p 2623 I5
+ w 966
j 830 110
+ p 2623 I3
+ w 2889
j 830 90
+ p 2623 I2
+ w 2886
j 910 100
+ p 2623 O
+ w 2779
j 530 100
+ p 2611 \G\
+ w 112
j 530 120
+ p 2611 CLK
+ w 2776
j 530 110
+ p 2611 U/\D\
+ w 60
j 530 160
+ p 2611 \LOAD\
+ w 60
j 530 130
+ p 2611 \ENT\
+ w 3
j 530 140
+ p 2611 \ENP\
+ w 3
j 530 180
+ p 2611 A
+ w 3
j 530 190
+ p 2611 B
+ w 3
j 530 200
+ p 2611 C
+ w 3
j 530 210
+ p 2611 D
+ w 3
j 530 150
+ p 2611 \SCLR\
+ w 2275
j 530 170
+ p 2611 \ACLR\
+ w 2884
j 590 190
+ p 2611 QB
+ w 2889
j 590 180
+ p 2611 QA
+ w 2886
j 590 140
+ p 2611 \RCO\
+ w 2728
j 760 180
+ p 2798 I1
+ w 2886
j 630 170
+ w 2821
+ w 2821
j 630 210
+ w 2821
+ w 2821
j 590 210
+ p 2611 QD
+ w 2821
j 830 120
+ p 2623 I4
+ w 2821
j 760 170
+ p 2798 I0
+ w 2821
j 640 270
+ w 966
+ w 966
j 590 200
+ p 2611 QC
+ w 966
j 760 200
+ p 2798 I2
+ w 2889
j 920 210
+ p 146 I0
+ w 2842
j 1010 160
+ p 239 I1
+ w 2855
j 840 190
+ p 2798 O
+ w 165
j 920 190
+ p 146 I1
+ w 165
j 990 200
+ p 146 O
+ w 2855
j 820 270
+ p 2857 I2
+ w 966
j 890 260
+ p 2857 O
+ w 2842
j 820 250
+ p 2857 I0
+ w 2821
j 1130 270
+ p 823 2
+ w 2681
j 390 170
+ w 2884
+ w 2884
j 500 530
+ p 2272 OUT
+ w 2275
j 500 320
+ w 2275
+ w 2275
j 730 180
+ w 2886
+ w 2886
j 680 180
+ w 2886
+ w 2886
j 670 190
+ w 2889
+ w 2889
j 720 200
+ w 2889
+ w 2889
j 710 250
+ w 2821
+ w 2821
j 660 250
+ w 2821
+ w 2821
j 650 270
+ w 966
+ w 966
j 680 700
+ p 2870 I2
+ w 966
j 760 690
+ p 2870 O
+ w 2872
j 680 680
+ p 2870 I1
+ w 2821
j 680 670
+ p 2870 I0
+ w 2889
j 540 640
+ p 1004 \S\
+ w 2864
j 540 720
+ p 1004 \R\
+ w 2884
j 1160 620
+ s 2149
+ w 2681
j 570 690
+ p 1004 CLK
+ w 2681
j 1130 620
+ w 2681
+ w 2681
j 510 690
+ p 1004 \Q\
+ w 1501
j 500 590
+ p 2272 IN
+ w 1501
j 570 670
+ p 1004 D
+ w 1008
j 600 670
+ s 1006
+ w 1008
j 290 470
+ s 2146
+ w 2526
j 760 350
+ w 2880
+ w 2880
j 770 350
+ w 2880
+ w 2880
j 820 260
+ p 2857 I1
+ w 2880
j 830 70
+ p 2623 I0
+ w 2880
j 590 350
+ p 2612 QA
+ w 2880
j 760 210
+ p 2798 I3
+ w 2880
j 830 350
+ w 2880
+ w 2880
j 640 350
+ w 2880
+ w 2880
j 680 710
+ p 2870 I3
+ w 2880
j 900 540
+ p 3004 O
+ w 2864
j 740 530
+ p 3005 I0
+ w 2886
j 740 550
+ p 3005 I2
+ w 2889
j 700 270
+ w 966
+ w 966
j 740 540
+ p 3005 I1
+ w 966
j 830 550
+ p 3004 I2
+ w 2821
j 830 540
+ p 3004 I1
+ w 3017
j 810 540
+ p 3005 O
+ w 3017
j 830 530
+ p 3004 I0
+ w 2880
j 350 120
+ w 2624
+ w 2624
j 360 120
+ w 2624
+ w 2624
j 400 120
+ p 140 I0
+ w 2624
j 310 120
+ s 2145
+ w 2624
j 830 80
+ p 2623 I1
+ w 2624
j 320 870
+ p 2091 1
+ w 2526
j 790 1080
+ w 2624
+ w 2624
j 790 950
+ w 2624
+ w 2624
j 790 830
+ w 2624
+ w 2624
j 770 830
+ w 2624
+ w 2624
j 770 840
+ w 2624
+ w 2624
j 770 960
+ w 2624
+ w 2624
j 770 1330
+ w 2624
+ w 2624
j 770 1090
+ w 2624
+ w 2624
j 770 1210
+ w 2624
+ w 2624
j 790 1200
+ w 2624
+ w 2624
j 790 1320
+ w 2624
+ w 2624
j 840 810
+ p 419 B
+ w 448
j 840 820
+ p 419 A
+ w 454
j 840 790
+ p 419 D
+ w 436
j 840 930
+ p 420 B
+ w 507
j 840 920
+ p 420 C
+ w 509
j 840 910
+ p 420 D
+ w 511
j 840 940
+ p 420 A
+ w 484
j 840 1060
+ p 421 B
+ w 466
j 840 1050
+ p 421 C
+ w 472
j 840 1040
+ p 421 D
+ w 478
j 840 1070
+ p 421 A
+ w 460
j 840 800
+ p 419 C
+ w 794
j 900 910
+ p 420 QD
+ w 513
j 840 850
+ p 419 SER
+ w 513
j 900 1040
+ p 421 QD
+ w 523
j 840 970
+ p 420 SER
+ w 523
j 360 870
+ p 2091 2
+ w 2094
j 1160 1110
+ s 2165
+ w 2183
j 1160 790
+ s 2150
+ w 594
j 900 790
+ p 419 QD
+ w 594
j 590 620
+ w 2681
+ w 2681
j 1060 1140
+ p 2177 1
+ w 2183
j 1120 1140
+ p 2153 +
+ w 2183
j 1120 1110
+ w 2183
+ w 2183
j 1060 1180
+ s 3384
+ p 2177 2
j 1120 1180
+ s 3385
+ p 2153 -
j 750 1470
+ s 3156
+ w 3065
j 840 1100
+ p 421 SER
+ w 3422
j 840 1160
+ p 3154 D
+ w 3492
j 840 1180
+ p 3154 B
+ w 3486
j 840 1170
+ p 3154 C
+ w 3484
j 900 1160
+ p 3154 QD
+ w 3422
j 840 1220
+ p 3154 SER
+ w 3087
j 780 1230
+ w 2020
+ w 2020
j 780 1350
+ w 2020
+ w 2020
j 780 860
+ w 2020
+ w 2020
j 780 1110
+ w 2020
+ w 2020
j 780 980
+ w 2020
+ w 2020
j 840 1110
+ p 421 MODE
+ w 2020
j 840 860
+ p 419 MODE
+ w 2020
j 840 980
+ p 420 MODE
+ w 2020
j 840 1230
+ p 3154 MODE
+ w 2020
j 840 1080
+ p 421 CLK2
+ w 2624
j 840 950
+ p 420 CLK2
+ w 2624
j 840 830
+ p 419 CLK2
+ w 2624
j 840 840
+ p 419 CLK1
+ w 2624
j 840 960
+ p 420 CLK1
+ w 2624
j 840 1090
+ p 421 CLK1
+ w 2624
j 840 1210
+ p 3154 CLK1
+ w 2624
j 840 1200
+ p 3154 CLK2
+ w 2624
j 780 680
+ p 947 I1
+ w 2872
j 780 660
+ p 947 I0
+ w 2886
j 850 670
+ p 947 O
+ w 2020
j 840 1460
+ p 3155 CLK1
+ w 2624
j 840 1450
+ p 3155 CLK2
+ w 2624
j 840 1480
+ p 3155 MODE
+ w 2020
j 840 1430
+ p 3155 B
+ w 3494
j 840 1420
+ p 3155 C
+ w 3493
j 840 1410
+ p 3155 D
+ w 3491
j 840 1440
+ p 3155 A
+ w 3495
j 900 1410
+ p 3155 QD
+ w 3077
j 840 1470
+ p 3155 SER
+ w 3065
j 840 1330
+ p 3153 CLK1
+ w 2624
j 840 1320
+ p 3153 CLK2
+ w 2624
j 840 1350
+ p 3153 MODE
+ w 2020
j 900 1280
+ p 3153 QD
+ w 3087
j 840 1340
+ p 3153 SER
+ w 3077
j 410 1000
+ p 2170 -
+ s 2173
j 410 960
+ p 2170 +
+ w 410
j 450 870
+ p 3020 IN
+ w 2094
j 550 1060
+ p 3020 DB4
+ w 3127
j 550 1050
+ p 3020 DB5
+ w 3133
j 550 1040
+ p 3020 DB6
+ w 3131
j 550 1030
+ p 3020 DB7
+ w 3129
j 550 1020
+ p 3020 DB8
+ w 3142
j 450 950
+ p 3020 REF
+ w 410
j 450 890
+ p 3020 CNVRT
+ w 2681
j 500 1120
+ s 3376
+ p 3020 GND
j 550 980
+ p 3020 DB12
+ w 460
j 550 970
+ p 3020 DB13
+ w 466
j 550 960
+ p 3020 DB14
+ w 472
j 550 950
+ p 3020 DB15
+ w 478
j 550 940
+ p 3020 DB16
+ w 484
j 550 930
+ p 3020 DB17
+ w 507
j 550 920
+ p 3020 DB18
+ w 509
j 550 910
+ p 3020 DB19
+ w 511
j 550 900
+ p 3020 DB20
+ w 454
j 550 890
+ p 3020 DB21
+ w 448
j 550 880
+ p 3020 DB22
+ w 794
j 550 870
+ p 3020 DB23
+ w 436
j 550 990
+ p 3020 DB11
+ w 3492
j 550 1000
+ p 3020 DB10
+ w 3484
j 550 1010
+ p 3020 DB9
+ w 3486
j 840 1190
+ p 3154 A
+ w 3142
j 840 1280
+ p 3153 D
+ w 3129
j 840 1290
+ p 3153 C
+ w 3131
j 840 1300
+ p 3153 B
+ w 3133
j 840 1310
+ p 3153 A
+ w 3127
j 550 1070
+ p 3020 DB3
+ w 3491
j 550 1080
+ p 3020 DB2
+ w 3493
j 550 1090
+ p 3020 DB1
+ w 3494
j 550 1100
+ p 3020 DB0
+ w 3495
j 300 1350
+ s 3547
+ w 3542
j 300 1390
+ s 3548
+ w 3544
j 350 1350
+ s 3549
+ w 3542
j 350 1390